@<TRIPOS>MOLECULE
molecule_00001
 11 11 0 0 0
SMALL
GASTEIGER
****
libRbt.so/2013.1/901 2013/11/27
@<TRIPOS>ATOM
      1 C          -4.0074   -3.5833   -1.3677 C.ar    1  UNL1        0.0328
      2 C          -5.1147   -4.1842   -1.9878 C.ar    1  UNL1        0.0014
      3 C          -5.5062   -3.7968   -3.2699 C.ar    1  UNL1       -0.0001
      4 C          -4.8053   -2.7981   -3.9418 C.ar    1  UNL1       -0.0000
      5 C          -3.7291   -2.1665   -3.3232 C.ar    1  UNL1       -0.0001
      6 C          -3.3361   -2.5489   -2.0403 C.ar    1  UNL1        0.0014
      7 C          -3.5229   -4.0671   -0.0247 C.3     1  UNL1        0.1367
      8 N          -4.2783   -3.5077    1.2037 N.4     1  UNL1        0.3140
      9 C          -5.7407   -3.9309    1.1854 C.3     1  UNL1        0.1713
     10 C          -3.6237   -4.0647    2.4624 C.3     1  UNL1        0.1713
     11 C          -4.2014   -1.9875    1.2431 C.3     1  UNL1        0.1713
@<TRIPOS>BOND
     1     1     2   ar
     2     1     6   ar
     3     1     7    1
     4     2     3   ar
     5     3     4   ar
     6     4     5   ar
     7     5     6   ar
     8     7     8    1
     9     8     9    1
    10     8    10    1
    11     8    11    1
@<TRIPOS>MOLECULE
molecule_00001
 11 11 0 0 0
SMALL
GASTEIGER
****
libRbt.so/2013.1/901 2013/11/27
@<TRIPOS>ATOM
      1 C          -5.0728   -2.9741   -1.0588 C.ar    1  UNL1        0.0328
      2 C          -3.9625   -2.7740   -0.2227 C.ar    1  UNL1        0.0014
      3 C          -2.7424   -2.3529   -0.7529 C.ar    1  UNL1       -0.0001
      4 C          -2.6134   -2.1389   -2.1231 C.ar    1  UNL1       -0.0000
      5 C          -3.6955   -2.3711   -2.9687 C.ar    1  UNL1       -0.0001
      6 C          -4.9165   -2.7948   -2.4431 C.ar    1  UNL1        0.0014
      7 C          -6.4167   -3.3336   -0.4781 C.3     1  UNL1        0.1367
      8 N          -6.7054   -4.8468   -0.3383 N.4     1  UNL1        0.3140
      9 C          -6.5738   -5.5546   -1.6799 C.3     1  UNL1        0.1713
     10 C          -5.6886   -5.4405    0.6296 C.3     1  UNL1        0.1713
     11 C          -8.1043   -5.0845    0.2138 C.3     1  UNL1        0.1713
@<TRIPOS>BOND
     1     1     2   ar
     2     1     6   ar
     3     1     7    1
     4     2     3   ar
     5     3     4   ar
     6     4     5   ar
     7     5     6   ar
     8     7     8    1
     9     8     9    1
    10     8    10    1
    11     8    11    1
@<TRIPOS>MOLECULE
molecule_00001
 11 11 0 0 0
SMALL
GASTEIGER
****
libRbt.so/2013.1/901 2013/11/27
@<TRIPOS>ATOM
      1 C          -3.7667   -2.5128   -1.5763 C.ar    1  UNL1        0.0328
      2 C          -4.6868   -3.4130   -1.0153 C.ar    1  UNL1        0.0014
      3 C          -5.5997   -4.0905   -1.8245 C.ar    1  UNL1       -0.0001
      4 C          -5.6125   -3.8683   -3.1995 C.ar    1  UNL1       -0.0000
      5 C          -4.7315   -2.9491   -3.7643 C.ar    1  UNL1       -0.0001
      6 C          -3.8191   -2.2676   -2.9583 C.ar    1  UNL1        0.0014
      7 C          -2.7162   -1.8542   -0.7190 C.3     1  UNL1        0.1367
      8 N          -1.4317   -2.6810   -0.4760 N.4     1  UNL1        0.3140
      9 C          -0.8784   -3.2286   -1.7845 C.3     1  UNL1        0.1713
     10 C          -0.3863   -1.7673    0.1528 C.3     1  UNL1        0.1713
     11 C          -1.7032   -3.8407    0.4727 C.3     1  UNL1        0.1713
@<TRIPOS>BOND
     1     1     2   ar
     2     1     6   ar
     3     1     7    1
     4     2     3   ar
     5     3     4   ar
     6     4     5   ar
     7     5     6   ar
     8     7     8    1
     9     8     9    1
    10     8    10    1
    11     8    11    1
@<TRIPOS>MOLECULE
molecule_00001
 11 11 0 0 0
SMALL
GASTEIGER
****
libRbt.so/2013.1/901 2013/11/27
@<TRIPOS>ATOM
      1 C          -5.0959   -2.8995   -1.0111 C.ar    1  UNL1        0.0328
      2 C          -4.9063   -2.7818   -2.3975 C.ar    1  UNL1        0.0014
      3 C          -3.6594   -2.4294   -2.9153 C.ar    1  UNL1       -0.0001
      4 C          -2.5922   -2.1790   -2.0560 C.ar    1  UNL1       -0.0000
      5 C          -2.7762   -2.2541   -0.6774 C.ar    1  UNL1       -0.0001
      6 C          -4.0220   -2.6033   -0.1554 C.ar    1  UNL1        0.0014
      7 C          -6.4133   -3.3747   -0.4535 C.3     1  UNL1        0.1367
      8 N          -6.6524   -4.9020   -0.5031 N.4     1  UNL1        0.3140
      9 C          -5.5653   -5.6504    0.2562 C.3     1  UNL1        0.1713
     10 C          -7.9972   -5.1973    0.1507 C.3     1  UNL1        0.1713
     11 C          -6.6869   -5.4004   -1.9414 C.3     1  UNL1        0.1713
@<TRIPOS>BOND
     1     1     2   ar
     2     1     6   ar
     3     1     7    1
     4     2     3   ar
     5     3     4   ar
     6     4     5   ar
     7     5     6   ar
     8     7     8    1
     9     8     9    1
    10     8    10    1
    11     8    11    1
@<TRIPOS>MOLECULE
molecule_00001
 11 11 0 0 0
SMALL
GASTEIGER
****
libRbt.so/2013.1/901 2013/11/27
@<TRIPOS>ATOM
      1 C          -4.5508   -3.1570   -2.0672 C.ar    1  UNL1        0.0328
      2 C          -3.2679   -2.8036   -2.5157 C.ar    1  UNL1        0.0014
      3 C          -2.3607   -2.1858   -1.6541 C.ar    1  UNL1       -0.0001
      4 C          -2.7274   -1.9031   -0.3405 C.ar    1  UNL1       -0.0000
      5 C          -4.0097   -2.2129    0.1063 C.ar    1  UNL1       -0.0001
      6 C          -4.9207   -2.8281   -0.7528 C.ar    1  UNL1        0.0014
      7 C          -5.4975   -3.9118   -2.9652 C.3     1  UNL1        0.1367
      8 N          -6.0119   -5.2630   -2.4154 N.4     1  UNL1        0.3140
      9 C          -7.0141   -5.0489   -1.2893 C.3     1  UNL1        0.1713
     10 C          -6.7036   -6.0092   -3.5503 C.3     1  UNL1        0.1713
     11 C          -4.8595   -6.1142   -1.8999 C.3     1  UNL1        0.1713
@<TRIPOS>BOND
     1     1     2   ar
     2     1     6   ar
     3     1     7    1
     4     2     3   ar
     5     3     4   ar
     6     4     5   ar
     7     5     6   ar
     8     7     8    1
     9     8     9    1
    10     8    10    1
    11     8    11    1
@<TRIPOS>MOLECULE
molecule_00002
 7 7 0 0 0
SMALL
GASTEIGER
****
libRbt.so/2013.1/901 2013/11/27
@<TRIPOS>ATOM
      1 C          -2.9842   -3.4396    0.1643 C.ar    1  UNL1        0.0126
      2 C          -2.2414   -2.3103    0.4949 C.ar    1  UNL1        0.0758
      3 C          -1.3730   -1.7738   -0.4469 C.ar    1  UNL1        0.2875
      4 N          -1.2608   -2.3467   -1.6566 N.ar    1  UNL1       -0.1931
      5 C          -1.9642   -3.4368   -2.0047 C.ar    1  UNL1        0.2875
      6 C          -2.8458   -4.0102   -1.0974 C.ar    1  UNL1        0.0758
      7 H          -0.6173   -1.9387   -2.3364 H       1  UNL1        0.4539
@<TRIPOS>BOND
     1     1     2   ar
     2     1     6   ar
     3     2     3   ar
     4     3     4   ar
     5     4     5   ar
     6     4     7    1
     7     5     6   ar
@<TRIPOS>MOLECULE
molecule_00002
 7 7 0 0 0
SMALL
GASTEIGER
****
libRbt.so/2013.1/901 2013/11/27
@<TRIPOS>ATOM
      1 C          -4.3199   -3.1736   -1.2953 C.ar    1  UNL1        0.0126
      2 C          -5.3273   -3.9161   -1.9039 C.ar    1  UNL1        0.0758
      3 C          -5.5319   -3.7833   -3.2712 C.ar    1  UNL1        0.2875
      4 N          -4.7611   -2.9460   -3.9849 N.ar    1  UNL1       -0.1931
      5 C          -3.7816   -2.2164   -3.4258 C.ar    1  UNL1        0.2875
      6 C          -3.5382   -2.3146   -2.0619 C.ar    1  UNL1        0.0758
      7 H          -4.9258   -2.8610   -4.9890 H       1  UNL1        0.4539
@<TRIPOS>BOND
     1     1     2   ar
     2     1     6   ar
     3     2     3   ar
     4     3     4   ar
     5     4     5   ar
     6     4     7    1
     7     5     6   ar
@<TRIPOS>MOLECULE
molecule_00002
 7 7 0 0 0
SMALL
GASTEIGER
****
libRbt.so/2013.1/901 2013/11/27
@<TRIPOS>ATOM
      1 C          -4.6062   -3.0702   -1.6358 C.ar    1  UNL1        0.0126
      2 C          -3.6523   -2.1937   -2.1440 C.ar    1  UNL1        0.0758
      3 C          -3.5715   -2.0063   -3.5178 C.ar    1  UNL1        0.2875
      4 N          -4.4084   -2.6683   -4.3339 N.ar    1  UNL1       -0.1931
      5 C          -5.3389   -3.5203   -3.8731 C.ar    1  UNL1        0.2875
      6 C          -5.4590   -3.7412   -2.5071 C.ar    1  UNL1        0.0758
      7 H          -4.3344   -2.5182   -5.3412 H       1  UNL1        0.4539
@<TRIPOS>BOND
     1     1     2   ar
     2     1     6   ar
     3     2     3   ar
     4     3     4   ar
     5     4     5   ar
     6     4     7    1
     7     5     6   ar
@<TRIPOS>MOLECULE
molecule_00002
 7 7 0 0 0
SMALL
GASTEIGER
****
libRbt.so/2013.1/901 2013/11/27
@<TRIPOS>ATOM
      1 C          -4.7627   -3.4775   -1.5200 C.ar    1  UNL1        0.0126
      2 C          -5.4766   -3.6996   -2.6937 C.ar    1  UNL1        0.0758
      3 C          -5.0505   -3.0931   -3.8683 C.ar    1  UNL1        0.2875
      4 N          -3.9626   -2.3051   -3.8579 N.ar    1  UNL1       -0.1931
      5 C          -3.2534   -2.0719   -2.7413 C.ar    1  UNL1        0.2875
      6 C          -3.6397   -2.6559   -1.5417 C.ar    1  UNL1        0.0758
      7 H          -3.6640   -1.8674   -4.7308 H       1  UNL1        0.4539
@<TRIPOS>BOND
     1     1     2   ar
     2     1     6   ar
     3     2     3   ar
     4     3     4   ar
     5     4     5   ar
     6     4     7    1
     7     5     6   ar
@<TRIPOS>MOLECULE
molecule_00002
 7 7 0 0 0
SMALL
GASTEIGER
****
libRbt.so/2013.1/901 2013/11/27
@<TRIPOS>ATOM
      1 C          -3.2834   -3.2764   -0.0358 C.ar    1  UNL1        0.0126
      2 C          -2.6404   -2.0820    0.2747 C.ar    1  UNL1        0.0758
      3 C          -1.6687   -1.5939   -0.5894 C.ar    1  UNL1        0.2875
      4 N          -1.3630   -2.2751   -1.7061 N.ar    1  UNL1       -0.1931
      5 C          -1.9662   -3.4301   -2.0323 C.ar    1  UNL1        0.2875
      6 C          -2.9446   -3.9589   -1.2003 C.ar    1  UNL1        0.0758
      7 H          -0.6460   -1.9013   -2.3296 H       1  UNL1        0.4539
@<TRIPOS>BOND
     1     1     2   ar
     2     1     6   ar
     3     2     3   ar
     4     3     4   ar
     5     4     5   ar
     6     4     7    1
     7     5     6   ar
@<TRIPOS>MOLECULE
molecule_00003
 7 7 0 0 0
SMALL
GASTEIGER
****
libRbt.so/2013.1/901 2013/11/27
@<TRIPOS>ATOM
      1 C          -4.4933   -2.7560   -3.5491 C.ar    1  UNL1        0.1401
      2 C          -3.5882   -2.1966   -2.6534 C.ar    1  UNL1        0.0296
      3 C          -3.6299   -2.5715   -1.3109 C.ar    1  UNL1        0.0023
      4 C          -4.5765   -3.5024   -0.8771 C.ar    1  UNL1        0.0001
      5 C          -5.4815   -4.0588   -1.7841 C.ar    1  UNL1        0.0023
      6 C          -5.4394   -3.6836   -3.1266 C.ar    1  UNL1        0.0296
      7 F          -4.4531   -2.3958   -4.8386 F       1  UNL1       -0.2042
@<TRIPOS>BOND
     1     1     2   ar
     2     1     6   ar
     3     1     7    1
     4     2     3   ar
     5     3     4   ar
     6     4     5   ar
     7     5     6   ar
@<TRIPOS>MOLECULE
molecule_00003
 7 7 0 0 0
SMALL
GASTEIGER
****
libRbt.so/2013.1/901 2013/11/27
@<TRIPOS>ATOM
      1 C          -4.5775   -2.9074   -3.3888 C.ar    1  UNL1        0.1401
      2 C          -5.5262   -3.9140   -3.2447 C.ar    1  UNL1        0.0296
      3 C          -5.9261   -4.3030   -1.9666 C.ar    1  UNL1        0.0023
      4 C          -5.3730   -3.6812   -0.8448 C.ar    1  UNL1        0.0001
      5 C          -4.4207   -2.6710   -0.9995 C.ar    1  UNL1        0.0023
      6 C          -4.0212   -2.2824   -2.2779 C.ar    1  UNL1        0.0296
      7 F          -4.1935   -2.5339   -4.6166 F       1  UNL1       -0.2042
@<TRIPOS>BOND
     1     1     2   ar
     2     1     6   ar
     3     1     7    1
     4     2     3   ar
     5     3     4   ar
     6     4     5   ar
     7     5     6   ar
@<TRIPOS>MOLECULE
molecule_00003
 7 7 0 0 0
SMALL
GASTEIGER
****
libRbt.so/2013.1/901 2013/11/27
@<TRIPOS>ATOM
      1 C          -3.5203   -2.3607   -1.6914 C.ar    1  UNL1        0.1401
      2 C          -4.3971   -3.2038   -1.0171 C.ar    1  UNL1        0.0296
      3 C          -5.3848   -3.8810   -1.7317 C.ar    1  UNL1        0.0023
      4 C          -5.4860   -3.7082   -3.1140 C.ar    1  UNL1        0.0001
      5 C          -4.6008   -2.8592   -3.7826 C.ar    1  UNL1        0.0023
      6 C          -3.6132   -2.1823   -3.0674 C.ar    1  UNL1        0.0296
      7 F          -2.5716   -1.7104   -1.0047 F       1  UNL1       -0.2042
@<TRIPOS>BOND
     1     1     2   ar
     2     1     6   ar
     3     1     7    1
     4     2     3   ar
     5     3     4   ar
     6     4     5   ar
     7     5     6   ar
@<TRIPOS>MOLECULE
molecule_00003
 7 7 0 0 0
SMALL
GASTEIGER
****
libRbt.so/2013.1/901 2013/11/27
@<TRIPOS>ATOM
      1 C          -3.6452   -2.3423   -1.5445 C.ar    1  UNL1        0.1401
      2 C          -4.6024   -3.1524   -0.9431 C.ar    1  UNL1        0.0296
      3 C          -5.5228   -3.8344   -1.7384 C.ar    1  UNL1        0.0023
      4 C          -5.4768   -3.6995   -3.1279 C.ar    1  UNL1        0.0001
      5 C          -4.5117   -2.8835   -3.7229 C.ar    1  UNL1        0.0023
      6 C          -3.5915   -2.2017   -2.9270 C.ar    1  UNL1        0.0296
      7 F          -2.7613   -1.6872   -0.7803 F       1  UNL1       -0.2042
@<TRIPOS>BOND
     1     1     2   ar
     2     1     6   ar
     3     1     7    1
     4     2     3   ar
     5     3     4   ar
     6     4     5   ar
     7     5     6   ar
@<TRIPOS>MOLECULE
molecule_00003
 7 7 0 0 0
SMALL
GASTEIGER
****
libRbt.so/2013.1/901 2013/11/27
@<TRIPOS>ATOM
      1 C          -5.5598   -3.8119   -2.2923 C.ar    1  UNL1        0.1401
      2 C          -5.1139   -3.3036   -3.5076 C.ar    1  UNL1        0.0296
      3 C          -3.9843   -2.4863   -3.5371 C.ar    1  UNL1        0.0023
      4 C          -3.3116   -2.1854   -2.3506 C.ar    1  UNL1        0.0001
      5 C          -3.7670   -2.7006   -1.1347 C.ar    1  UNL1        0.0023
      6 C          -4.8967   -3.5179   -1.1058 C.ar    1  UNL1        0.0296
      7 F          -6.6449   -4.5970   -2.2641 F       1  UNL1       -0.2042
@<TRIPOS>BOND
     1     1     2   ar
     2     1     6   ar
     3     1     7    1
     4     2     3   ar
     5     3     4   ar
     6     4     5   ar
     7     5     6   ar
@<TRIPOS>MOLECULE
molecule_00004
 7 7 0 0 0
SMALL
GASTEIGER
****
libRbt.so/2013.1/901 2013/11/27
@<TRIPOS>ATOM
      1 C          -4.1270   -2.4252   -2.4935 C.ar    1  UNL1        0.0577
      2 C          -5.1845   -2.7296   -1.6376 C.ar    1  UNL1        0.0114
      3 C          -4.9707   -2.7659   -0.2587 C.ar    1  UNL1        0.0009
      4 C          -3.7021   -2.4979    0.2576 C.ar    1  UNL1        0.0001
      5 C          -2.6460   -2.1937   -0.6026 C.ar    1  UNL1        0.0009
      6 C          -2.8581   -2.1570   -1.9816 C.ar    1  UNL1        0.0114
      7 CL         -4.3895   -2.3803   -4.1937 Cl      1  UNL1       -0.0822
@<TRIPOS>BOND
     1     1     2   ar
     2     1     6   ar
     3     1     7    1
     4     2     3   ar
     5     3     4   ar
     6     4     5   ar
     7     5     6   ar
@<TRIPOS>MOLECULE
molecule_00004
 7 7 0 0 0
SMALL
GASTEIGER
****
libRbt.so/2013.1/901 2013/11/27
@<TRIPOS>ATOM
      1 C          -4.1305   -2.4235   -2.5199 C.ar    1  UNL1        0.0577
      2 C          -5.1627   -2.7228   -1.6319 C.ar    1  UNL1        0.0114
      3 C          -4.9084   -2.7532   -0.2597 C.ar    1  UNL1        0.0009
      4 C          -3.6249   -2.4846    0.2178 C.ar    1  UNL1        0.0001
      5 C          -2.5943   -2.1856   -0.6745 C.ar    1  UNL1        0.0009
      6 C          -2.8468   -2.1548   -2.0468 C.ar    1  UNL1        0.0114
      7 CL         -4.4429   -2.3858   -4.2118 Cl      1  UNL1       -0.0822
@<TRIPOS>BOND
     1     1     2   ar
     2     1     6   ar
     3     1     7    1
     4     2     3   ar
     5     3     4   ar
     6     4     5   ar
     7     5     6   ar
@<TRIPOS>MOLECULE
molecule_00004
 7 7 0 0 0
SMALL
GASTEIGER
****
libRbt.so/2013.1/901 2013/11/27
@<TRIPOS>ATOM
      1 C          -4.1303   -2.4326   -2.4918 C.ar    1  UNL1        0.0577
      2 C          -2.8651   -2.1546   -1.9765 C.ar    1  UNL1        0.0114
      3 C          -2.6581   -2.1832   -0.5964 C.ar    1  UNL1        0.0009
      4 C          -3.7156   -2.4892    0.2613 C.ar    1  UNL1        0.0001
      5 C          -4.9808   -2.7667   -0.2586 C.ar    1  UNL1        0.0009
      6 C          -5.1895   -2.7386   -1.6383 C.ar    1  UNL1        0.0114
      7 CL         -4.3866   -2.3976   -4.1932 Cl      1  UNL1       -0.0822
@<TRIPOS>BOND
     1     1     2   ar
     2     1     6   ar
     3     1     7    1
     4     2     3   ar
     5     3     4   ar
     6     4     5   ar
     7     5     6   ar
@<TRIPOS>MOLECULE
molecule_00004
 7 7 0 0 0
SMALL
GASTEIGER
****
libRbt.so/2013.1/901 2013/11/27
@<TRIPOS>ATOM
      1 C          -5.3527   -3.2552   -1.2318 C.ar    1  UNL1        0.0577
      2 C          -5.1711   -3.2568   -2.6141 C.ar    1  UNL1        0.0114
      3 C          -3.9936   -2.7414   -3.1583 C.ar    1  UNL1        0.0009
      4 C          -3.0041   -2.2273   -2.3191 C.ar    1  UNL1        0.0001
      5 C          -3.1898   -2.2273   -0.9358 C.ar    1  UNL1        0.0009
      6 C          -4.3666   -2.7423   -0.3901 C.ar    1  UNL1        0.0114
      7 CL         -6.8042   -3.8904   -0.5599 Cl      1  UNL1       -0.0822
@<TRIPOS>BOND
     1     1     2   ar
     2     1     6   ar
     3     1     7    1
     4     2     3   ar
     5     3     4   ar
     6     4     5   ar
     7     5     6   ar
@<TRIPOS>MOLECULE
molecule_00004
 7 7 0 0 0
SMALL
GASTEIGER
****
libRbt.so/2013.1/901 2013/11/27
@<TRIPOS>ATOM
      1 C          -5.1126   -3.2734   -1.0689 C.ar    1  UNL1        0.0577
      2 C          -3.9361   -2.5265   -1.0269 C.ar    1  UNL1        0.0114
      3 C          -3.2837   -2.1950   -2.2156 C.ar    1  UNL1        0.0009
      4 C          -3.8098   -2.6113   -3.4393 C.ar    1  UNL1        0.0001
      5 C          -4.9876   -3.3590   -3.4771 C.ar    1  UNL1        0.0009
      6 C          -5.6412   -3.6913   -2.2895 C.ar    1  UNL1        0.0114
      7 CL         -5.9177   -3.6825    0.3960 Cl      1  UNL1       -0.0822
@<TRIPOS>BOND
     1     1     2   ar
     2     1     6   ar
     3     1     7    1
     4     2     3   ar
     5     3     4   ar
     6     4     5   ar
     7     5     6   ar
@<TRIPOS>MOLECULE
molecule_00005
 7 7 0 0 0
SMALL
GASTEIGER
****
libRbt.so/2013.1/901 2013/11/27
@<TRIPOS>ATOM
      1 C          -5.1332   -3.2349   -2.7596 C.ar    1  UNL1        0.0346
      2 C          -5.7942   -4.4159   -3.0954 C.ar    1  UNL1        0.0067
      3 C          -6.5804   -5.0627   -2.1407 C.ar    1  UNL1        0.0005
      4 C          -6.7022   -4.5278   -0.8576 C.ar    1  UNL1        0.0000
      5 C          -6.0387   -3.3456   -0.5267 C.ar    1  UNL1        0.0005
      6 C          -5.2517   -2.6963   -1.4790 C.ar    1  UNL1        0.0067
      7 BR         -4.0678   -2.3569   -4.0514 Br      1  UNL1       -0.0490
@<TRIPOS>BOND
     1     1     2   ar
     2     1     6   ar
     3     1     7    1
     4     2     3   ar
     5     3     4   ar
     6     4     5   ar
     7     5     6   ar
@<TRIPOS>MOLECULE
molecule_00005
 7 7 0 0 0
SMALL
GASTEIGER
****
libRbt.so/2013.1/901 2013/11/27
@<TRIPOS>ATOM
      1 C          -5.4702   -3.4361   -1.3988 C.ar    1  UNL1        0.0346
      2 C          -4.5277   -2.8530   -0.5526 C.ar    1  UNL1        0.0067
      3 C          -3.3825   -2.2670   -1.0938 C.ar    1  UNL1        0.0005
      4 C          -3.1845   -2.2664   -2.4751 C.ar    1  UNL1        0.0000
      5 C          -4.1306   -2.8513   -3.3177 C.ar    1  UNL1        0.0005
      6 C          -5.2770   -3.4381   -2.7797 C.ar    1  UNL1        0.0067
      7 BR         -7.0224   -4.2303   -0.6678 Br      1  UNL1       -0.0490
@<TRIPOS>BOND
     1     1     2   ar
     2     1     6   ar
     3     1     7    1
     4     2     3   ar
     5     3     4   ar
     6     4     5   ar
     7     5     6   ar
@<TRIPOS>MOLECULE
molecule_00005
 7 7 0 0 0
SMALL
GASTEIGER
****
libRbt.so/2013.1/901 2013/11/27
@<TRIPOS>ATOM
      1 C          -5.1365   -3.2039   -2.6311 C.ar    1  UNL1        0.0346
      2 C          -5.8734   -4.3561   -2.9023 C.ar    1  UNL1        0.0067
      3 C          -6.6166   -4.9561   -1.8847 C.ar    1  UNL1        0.0005
      4 C          -6.6200   -4.4033   -0.6034 C.ar    1  UNL1        0.0000
      5 C          -5.8808   -3.2500   -0.3371 C.ar    1  UNL1        0.0005
      6 C          -5.1365   -2.6476   -1.3526 C.ar    1  UNL1        0.0067
      7 BR         -4.1291   -2.3894   -4.0082 Br      1  UNL1       -0.0490
@<TRIPOS>BOND
     1     1     2   ar
     2     1     6   ar
     3     1     7    1
     4     2     3   ar
     5     3     4   ar
     6     4     5   ar
     7     5     6   ar
@<TRIPOS>MOLECULE
molecule_00005
 7 7 0 0 0
SMALL
GASTEIGER
****
libRbt.so/2013.1/901 2013/11/27
@<TRIPOS>ATOM
      1 C          -5.4881   -3.4182   -1.3958 C.ar    1  UNL1        0.0346
      2 C          -5.3106   -3.4041   -2.7787 C.ar    1  UNL1        0.0067
      3 C          -4.1691   -2.8134   -3.3225 C.ar    1  UNL1        0.0005
      4 C          -3.2121   -2.2405   -2.4839 C.ar    1  UNL1        0.0000
      5 C          -3.3944   -2.2573   -1.1005 C.ar    1  UNL1        0.0005
      6 C          -4.5349   -2.8472   -0.5534 C.ar    1  UNL1        0.0067
      7 BR         -7.0337   -4.2180   -0.6569 Br      1  UNL1       -0.0490
@<TRIPOS>BOND
     1     1     2   ar
     2     1     6   ar
     3     1     7    1
     4     2     3   ar
     5     3     4   ar
     6     4     5   ar
     7     5     6   ar
@<TRIPOS>MOLECULE
molecule_00005
 7 7 0 0 0
SMALL
GASTEIGER
****
libRbt.so/2013.1/901 2013/11/27
@<TRIPOS>ATOM
      1 C          -5.9100   -4.3739   -2.5539 C.ar    1  UNL1        0.0346
      2 C          -5.2047   -3.5759   -3.4539 C.ar    1  UNL1        0.0067
      3 C          -4.3880   -2.5506   -2.9748 C.ar    1  UNL1        0.0005
      4 C          -4.2800   -2.3277   -1.6016 C.ar    1  UNL1        0.0000
      5 C          -4.9879   -3.1291   -0.7050 C.ar    1  UNL1        0.0005
      6 C          -5.8055   -4.1553   -1.1808 C.ar    1  UNL1        0.0067
      7 BR         -7.0168   -5.7636   -3.2007 Br      1  UNL1       -0.0490
@<TRIPOS>BOND
     1     1     2   ar
     2     1     6   ar
     3     1     7    1
     4     2     3   ar
     5     3     4   ar
     6     4     5   ar
     7     5     6   ar
@<TRIPOS>MOLECULE
molecule_00006
 7 7 0 0 0
SMALL
GASTEIGER
****
libRbt.so/2013.1/901 2013/11/27
@<TRIPOS>ATOM
      1 C          -3.5161   -2.5330   -1.5929 C.ar    1  UNL1        0.0301
      2 C          -3.4652   -2.1867   -2.9435 C.ar    1  UNL1        0.0058
      3 C          -4.4146   -2.7043   -3.8265 C.ar    1  UNL1        0.0004
      4 C          -5.4087   -3.5639   -3.3587 C.ar    1  UNL1        0.0000
      5 C          -5.4561   -3.9078   -2.0075 C.ar    1  UNL1        0.0004
      6 C          -4.5087   -3.3924   -1.1211 C.ar    1  UNL1        0.0058
      7 I          -2.1039   -1.7637   -0.2754 I       1  UNL1       -0.0425
@<TRIPOS>BOND
     1     1     2   ar
     2     1     6   ar
     3     1     7    1
     4     2     3   ar
     5     3     4   ar
     6     4     5   ar
     7     5     6   ar
@<TRIPOS>MOLECULE
molecule_00006
 7 7 0 0 0
SMALL
GASTEIGER
****
libRbt.so/2013.1/901 2013/11/27
@<TRIPOS>ATOM
      1 C          -5.3256   -3.3892   -2.3335 C.ar    1  UNL1        0.0301
      2 C          -6.0389   -4.5317   -2.6973 C.ar    1  UNL1        0.0058
      3 C          -6.8625   -5.1602   -1.7616 C.ar    1  UNL1        0.0004
      4 C          -6.9704   -4.6467   -0.4690 C.ar    1  UNL1        0.0000
      5 C          -6.2554   -3.5040   -0.1091 C.ar    1  UNL1        0.0004
      6 C          -5.4307   -2.8725   -1.0418 C.ar    1  UNL1        0.0058
      7 I          -4.0984   -2.4509   -3.7247 I       1  UNL1       -0.0425
@<TRIPOS>BOND
     1     1     2   ar
     2     1     6   ar
     3     1     7    1
     4     2     3   ar
     5     3     4   ar
     6     4     5   ar
     7     5     6   ar
@<TRIPOS>MOLECULE
molecule_00006
 7 7 0 0 0
SMALL
GASTEIGER
****
libRbt.so/2013.1/901 2013/11/27
@<TRIPOS>ATOM
      1 C          -5.2825   -3.3164   -2.3757 C.ar    1  UNL1        0.0301
      2 C          -5.9930   -4.4866   -2.6444 C.ar    1  UNL1        0.0058
      3 C          -6.7461   -5.0862   -1.6333 C.ar    1  UNL1        0.0004
      4 C          -6.7867   -4.5163   -0.3607 C.ar    1  UNL1        0.0000
      5 C          -6.0748   -3.3461   -0.0961 C.ar    1  UNL1        0.0004
      6 C          -5.3205   -2.7433   -1.1042 C.ar    1  UNL1        0.0058
      7 I          -4.1603   -2.4210   -3.8793 I       1  UNL1       -0.0425
@<TRIPOS>BOND
     1     1     2   ar
     2     1     6   ar
     3     1     7    1
     4     2     3   ar
     5     3     4   ar
     6     4     5   ar
     7     5     6   ar
@<TRIPOS>MOLECULE
molecule_00006
 7 7 0 0 0
SMALL
GASTEIGER
****
libRbt.so/2013.1/901 2013/11/27
@<TRIPOS>ATOM
      1 C          -5.3251   -3.3809   -2.3394 C.ar    1  UNL1        0.0301
      2 C          -6.0276   -4.5313   -2.6991 C.ar    1  UNL1        0.0058
      3 C          -6.8465   -5.1633   -1.7615 C.ar    1  UNL1        0.0004
      4 C          -6.9604   -4.6453   -0.4713 C.ar    1  UNL1        0.0000
      5 C          -6.2562   -3.4947   -0.1155 C.ar    1  UNL1        0.0004
      6 C          -5.4363   -2.8596   -1.0500 C.ar    1  UNL1        0.0058
      7 I          -4.1049   -2.4374   -3.7333 I       1  UNL1       -0.0425
@<TRIPOS>BOND
     1     1     2   ar
     2     1     6   ar
     3     1     7    1
     4     2     3   ar
     5     3     4   ar
     6     4     5   ar
     7     5     6   ar
@<TRIPOS>MOLECULE
molecule_00006
 7 7 0 0 0
SMALL
GASTEIGER
****
libRbt.so/2013.1/901 2013/11/27
@<TRIPOS>ATOM
      1 C          -4.3255   -2.5070   -1.7504 C.ar    1  UNL1        0.0301
      2 C          -5.5108   -2.8709   -1.1108 C.ar    1  UNL1        0.0058
      3 C          -5.5637   -2.8991    0.2840 C.ar    1  UNL1        0.0004
      4 C          -4.4354   -2.5645    1.0331 C.ar    1  UNL1        0.0000
      5 C          -3.2521   -2.2012    0.3897 C.ar    1  UNL1        0.0004
      6 C          -3.1949   -2.1718   -1.0049 C.ar    1  UNL1        0.0058
      7 I          -4.2436   -2.4640   -3.8272 I       1  UNL1       -0.0425
@<TRIPOS>BOND
     1     1     2   ar
     2     1     6   ar
     3     1     7    1
     4     2     3   ar
     5     3     4   ar
     6     4     5   ar
     7     5     6   ar
@<TRIPOS>MOLECULE
molecule_00007
 9 9 0 0 0
SMALL
GASTEIGER
****
libRbt.so/2013.1/901 2013/11/27
@<TRIPOS>ATOM
      1 C          -4.9482   -3.0857   -0.9623 C.ar    1  UNL1        0.0140
      2 C          -3.7144   -2.4187   -1.0433 C.ar    1  UNL1        0.0011
      3 C          -3.1039   -2.1829   -2.2778 C.ar    1  UNL1        0.0000
      4 C          -3.7188   -2.6116   -3.4528 C.ar    1  UNL1        0.0000
      5 C          -4.9428   -3.2757   -3.3935 C.ar    1  UNL1        0.0000
      6 C          -5.5512   -3.5103   -2.1578 C.ar    1  UNL1        0.0011
      7 C          -5.6108   -3.3399    0.3787 C.2     1  UNL1        0.0729
      8 O          -6.7487   -3.9084    0.3655 O.co2   1  UNL1       -0.5446
      9 O          -4.9800   -2.9657    1.4181 O.co2   1  UNL1       -0.5446
@<TRIPOS>BOND
     1     1     2   ar
     2     1     6   ar
     3     1     7    1
     4     2     3   ar
     5     3     4   ar
     6     4     5   ar
     7     5     6   ar
     8     7     8   ar
     9     7     9   ar
@<TRIPOS>MOLECULE
molecule_00007
 9 9 0 0 0
SMALL
GASTEIGER
****
libRbt.so/2013.1/901 2013/11/27
@<TRIPOS>ATOM
      1 C          -4.9418   -3.0901   -0.9584 C.ar    1  UNL1        0.0140
      2 C          -3.7105   -2.4185   -1.0377 C.ar    1  UNL1        0.0011
      3 C          -3.1027   -2.1740   -2.2719 C.ar    1  UNL1        0.0000
      4 C          -3.7180   -2.5983   -3.4482 C.ar    1  UNL1        0.0000
      5 C          -4.9396   -3.2670   -3.3906 C.ar    1  UNL1        0.0000
      6 C          -5.5453   -3.5103   -2.1552 C.ar    1  UNL1        0.0011
      7 C          -5.6014   -3.3538    0.3823 C.2     1  UNL1        0.0729
      8 O          -6.7323   -3.9361    0.3683 O.co2   1  UNL1       -0.5446
      9 O          -4.9754   -2.9730    1.4222 O.co2   1  UNL1       -0.5446
@<TRIPOS>BOND
     1     1     2   ar
     2     1     6   ar
     3     1     7    1
     4     2     3   ar
     5     3     4   ar
     6     4     5   ar
     7     5     6   ar
     8     7     8   ar
     9     7     9   ar
@<TRIPOS>MOLECULE
molecule_00007
 9 9 0 0 0
SMALL
GASTEIGER
****
libRbt.so/2013.1/901 2013/11/27
@<TRIPOS>ATOM
      1 C          -5.5591   -3.4570   -1.3009 C.ar    1  UNL1        0.0140
      2 C          -5.4500   -3.5354   -2.6993 C.ar    1  UNL1        0.0011
      3 C          -4.3564   -2.9790   -3.3678 C.ar    1  UNL1        0.0000
      4 C          -3.3531   -2.3342   -2.6468 C.ar    1  UNL1        0.0000
      5 C          -3.4433   -2.2453   -1.2587 C.ar    1  UNL1        0.0000
      6 C          -4.5378   -2.8025   -0.5926 C.ar    1  UNL1        0.0011
      7 C          -6.7464   -4.0628   -0.5761 C.2     1  UNL1        0.0729
      8 O          -7.6245   -4.6469   -1.2876 O.co2   1  UNL1       -0.5446
      9 O          -6.7771   -3.9420    0.6898 O.co2   1  UNL1       -0.5446
@<TRIPOS>BOND
     1     1     2   ar
     2     1     6   ar
     3     1     7    1
     4     2     3   ar
     5     3     4   ar
     6     4     5   ar
     7     5     6   ar
     8     7     8   ar
     9     7     9   ar
@<TRIPOS>MOLECULE
molecule_00007
 9 9 0 0 0
SMALL
GASTEIGER
****
libRbt.so/2013.1/901 2013/11/27
@<TRIPOS>ATOM
      1 C          -5.1078   -3.1874   -0.9615 C.ar    1  UNL1        0.0140
      2 C          -3.8970   -2.4751   -0.9752 C.ar    1  UNL1        0.0011
      3 C          -3.2339   -2.2068   -2.1755 C.ar    1  UNL1        0.0000
      4 C          -3.7722   -2.6478   -3.3830 C.ar    1  UNL1        0.0000
      5 C          -4.9723   -3.3567   -3.3904 C.ar    1  UNL1        0.0000
      6 C          -5.6335   -3.6237   -2.1889 C.ar    1  UNL1        0.0011
      7 C          -5.8276   -3.4769    0.3424 C.2     1  UNL1        0.0729
      8 O          -5.2386   -3.1386    1.4181 O.co2   1  UNL1       -0.5446
      9 O          -6.9671   -4.0369    0.2646 O.co2   1  UNL1       -0.5446
@<TRIPOS>BOND
     1     1     2   ar
     2     1     6   ar
     3     1     7    1
     4     2     3   ar
     5     3     4   ar
     6     4     5   ar
     7     5     6   ar
     8     7     8   ar
     9     7     9   ar
@<TRIPOS>MOLECULE
molecule_00007
 9 9 0 0 0
SMALL
GASTEIGER
****
libRbt.so/2013.1/901 2013/11/27
@<TRIPOS>ATOM
      1 C          -5.5467   -3.5011   -1.3274 C.ar    1  UNL1        0.0140
      2 C          -4.5459   -2.8158   -0.6185 C.ar    1  UNL1        0.0011
      3 C          -3.4652   -2.2313   -1.2837 C.ar    1  UNL1        0.0000
      4 C          -3.3681   -2.3233   -2.6710 C.ar    1  UNL1        0.0000
      5 C          -4.3505   -2.9996   -3.3924 C.ar    1  UNL1        0.0000
      6 C          -5.4302   -3.5832   -2.7248 C.ar    1  UNL1        0.0011
      7 C          -6.7205   -4.1342   -0.6039 C.2     1  UNL1        0.0729
      8 O          -6.7727   -3.9860    0.6584 O.co2   1  UNL1       -0.5446
      9 O          -7.5663   -4.7672   -1.3126 O.co2   1  UNL1       -0.5446
@<TRIPOS>BOND
     1     1     2   ar
     2     1     6   ar
     3     1     7    1
     4     2     3   ar
     5     3     4   ar
     6     4     5   ar
     7     5     6   ar
     8     7     8   ar
     9     7     9   ar
@<TRIPOS>MOLECULE
molecule_00008
 11 11 0 0 0
SMALL
GASTEIGER
****
libRbt.so/2013.1/901 2013/11/27
@<TRIPOS>ATOM
      1 C          -3.0911   -2.6215   -2.2214 C.ar    1  UNL1       -0.0026
      2 C          -2.3655   -2.0230   -1.1897 C.ar    1  UNL1       -0.0003
      3 C          -2.9590   -1.8198    0.0548 C.ar    1  UNL1       -0.0000
      4 C          -4.2738   -2.2287    0.2722 C.ar    1  UNL1       -0.0003
      5 C          -4.9997   -2.8274   -0.7596 C.ar    1  UNL1       -0.0026
      6 C          -4.4213   -3.0175   -2.0226 C.ar    1  UNL1       -0.0007
      7 C          -5.2249   -3.6132   -3.1554 C.3     1  UNL1        0.1521
      8 O          -6.9616   -4.9200   -1.7651 O.co2   1  UNL1       -0.2905
      9 S          -5.9199   -5.2092   -2.7503 S.3     1  UNL1       -0.1028
     10 O          -6.4357   -5.6646   -4.0434 O.2     1  UNL1       -0.3711
     11 O          -4.7870   -5.9913   -2.2554 O.2     1  UNL1       -0.3711
@<TRIPOS>BOND
     1     1     2   ar
     2     1     6   ar
     3     2     3   ar
     4     3     4   ar
     5     4     5   ar
     6     5     6   ar
     7     6     7    1
     8     7     9    1
     9     8     9    1
    10     9    10    2
    11     9    11    2
@<TRIPOS>MOLECULE
molecule_00008
 11 11 0 0 0
SMALL
GASTEIGER
****
libRbt.so/2013.1/901 2013/11/27
@<TRIPOS>ATOM
      1 C          -4.6948   -3.7523   -1.2904 C.ar    1  UNL1       -0.0026
      2 C          -3.6419   -2.8406   -1.3871 C.ar    1  UNL1       -0.0003
      3 C          -3.3847   -2.1965   -2.5960 C.ar    1  UNL1       -0.0000
      4 C          -4.1899   -2.4532   -3.7046 C.ar    1  UNL1       -0.0003
      5 C          -5.2430   -3.3650   -3.6080 C.ar    1  UNL1       -0.0026
      6 C          -5.4985   -4.0358   -2.4036 C.ar    1  UNL1       -0.0007
      7 C          -6.6021   -5.0646   -2.3147 C.3     1  UNL1        0.1521
      8 O          -4.9232   -6.9791   -2.7303 O.co2   1  UNL1       -0.2905
      9 S          -6.2343   -6.5587   -3.2240 S.3     1  UNL1       -0.1028
     10 O          -7.3303   -7.4457   -2.8274 O.2     1  UNL1       -0.3711
     11 O          -6.2767   -6.1562   -4.6298 O.2     1  UNL1       -0.3711
@<TRIPOS>BOND
     1     1     2   ar
     2     1     6   ar
     3     2     3   ar
     4     3     4   ar
     5     4     5   ar
     6     5     6   ar
     7     6     7    1
     8     7     9    1
     9     8     9    1
    10     9    10    2
    11     9    11    2
@<TRIPOS>MOLECULE
molecule_00008
 11 11 0 0 0
SMALL
GASTEIGER
****
libRbt.so/2013.1/901 2013/11/27
@<TRIPOS>ATOM
      1 C          -5.1947   -3.3568   -3.5645 C.ar    1  UNL1       -0.0026
      2 C          -4.1710   -2.4096   -3.6287 C.ar    1  UNL1       -0.0003
      3 C          -3.3395   -2.2044   -2.5291 C.ar    1  UNL1       -0.0000
      4 C          -3.5224   -2.9572   -1.3702 C.ar    1  UNL1       -0.0003
      5 C          -4.5462   -3.9045   -1.3059 C.ar    1  UNL1       -0.0026
      6 C          -5.4032   -4.1049   -2.3973 C.ar    1  UNL1       -0.0007
      7 C          -6.5464   -5.0894   -2.3076 C.3     1  UNL1        0.1521
      8 O          -4.9427   -7.0557   -2.7751 O.co2   1  UNL1       -0.2905
      9 S          -6.2488   -6.5866   -3.2372 S.3     1  UNL1       -0.1028
     10 O          -7.3659   -7.4396   -2.8249 O.2     1  UNL1       -0.3711
     11 O          -6.3069   -6.1701   -4.6383 O.2     1  UNL1       -0.3711
@<TRIPOS>BOND
     1     1     2   ar
     2     1     6   ar
     3     2     3   ar
     4     3     4   ar
     5     4     5   ar
     6     5     6   ar
     7     6     7    1
     8     7     9    1
     9     8     9    1
    10     9    10    2
    11     9    11    2
@<TRIPOS>MOLECULE
molecule_00008
 11 11 0 0 0
SMALL
GASTEIGER
****
libRbt.so/2013.1/901 2013/11/27
@<TRIPOS>ATOM
      1 C          -4.8908   -2.8231   -2.4758 C.ar    1  UNL1       -0.0026
      2 C          -3.6549   -2.3746   -2.9453 C.ar    1  UNL1       -0.0003
      3 C          -2.6112   -2.1414   -2.0516 C.ar    1  UNL1       -0.0000
      4 C          -2.7991   -2.3708   -0.6895 C.ar    1  UNL1       -0.0003
      5 C          -4.0352   -2.8193   -0.2198 C.ar    1  UNL1       -0.0026
      6 C          -5.0996   -3.0368   -1.1060 C.ar    1  UNL1       -0.0007
      7 C          -6.4539   -3.4674   -0.5915 C.3     1  UNL1        0.1521
      8 O          -6.8593   -5.0203   -2.6116 O.co2   1  UNL1       -0.2905
      9 S          -6.9241   -5.0979   -1.1523 S.3     1  UNL1       -0.1028
     10 O          -5.8890   -5.9457   -0.5564 O.2     1  UNL1       -0.3711
     11 O          -8.2591   -5.3109   -0.5933 O.2     1  UNL1       -0.3711
@<TRIPOS>BOND
     1     1     2   ar
     2     1     6   ar
     3     2     3   ar
     4     3     4   ar
     5     4     5   ar
     6     5     6   ar
     7     6     7    1
     8     7     9    1
     9     8     9    1
    10     9    10    2
    11     9    11    2
@<TRIPOS>MOLECULE
molecule_00008
 11 11 0 0 0
SMALL
GASTEIGER
****
libRbt.so/2013.1/901 2013/11/27
@<TRIPOS>ATOM
      1 C          -3.1371   -2.5544   -1.9065 C.ar    1  UNL1       -0.0026
      2 C          -2.5335   -1.9776   -0.7875 C.ar    1  UNL1       -0.0003
      3 C          -3.2603   -1.8115    0.3901 C.ar    1  UNL1       -0.0000
      4 C          -4.5866   -2.2359    0.4532 C.ar    1  UNL1       -0.0003
      5 C          -5.1903   -2.8128   -0.6659 C.ar    1  UNL1       -0.0026
      6 C          -4.4768   -2.9654   -1.8631 C.ar    1  UNL1       -0.0007
      7 C          -5.1470   -3.5373   -3.0911 C.3     1  UNL1        0.1521
      8 O          -6.2445   -5.6264   -4.1341 O.co2   1  UNL1       -0.2905
      9 S          -5.8617   -5.1503   -2.8051 S.3     1  UNL1       -0.1028
     10 O          -4.7450   -5.8876   -2.2093 O.2     1  UNL1       -0.3711
     11 O          -6.9700   -4.9057   -1.8821 O.2     1  UNL1       -0.3711
@<TRIPOS>BOND
     1     1     2   ar
     2     1     6   ar
     3     2     3   ar
     4     3     4   ar
     5     4     5   ar
     6     5     6   ar
     7     6     7    1
     8     7     9    1
     9     8     9    1
    10     9    10    2
    11     9    11    2
