@<TRIPOS>MOLECULE
*****
 11 11 0 0 0
SMALL
GASTEIGER
****
libRbt.so/2013.1/901 2013/11/27
@<TRIPOS>ATOM
      1 C           9.8167    1.0192   -1.1680 C.ar    1  UNL1        0.0328
      2 C          10.4835    1.8806   -0.2620 C.ar    1  UNL1        0.0014
      3 C           9.8506    2.3243    0.9140 C.ar    1  UNL1       -0.0001
      4 C           8.5389    1.9115    1.2055 C.ar    1  UNL1       -0.0000
      5 C           7.8673    1.0424    0.3282 C.ar    1  UNL1       -0.0001
      6 C           8.5020    0.5997   -0.8474 C.ar    1  UNL1        0.0014
      7 C          10.4925    0.5443   -2.4163 C.3     1  UNL1        0.1367
      8 N          10.2772    1.3601   -3.6839 N.4     1  UNL1        0.3140
      9 C          10.6850    2.7998   -3.4789 C.3     1  UNL1        0.1713
     10 C          11.0513    0.7776   -4.8426 C.3     1  UNL1        0.1713
     11 C           8.8042    1.3251   -4.0278 C.3     1  UNL1        0.1713
@<TRIPOS>BOND
     1     1     2   ar
     2     1     6   ar
     3     1     7    1
     4     2     3   ar
     5     3     4   ar
     6     4     5   ar
     7     5     6   ar
     8     7     8    1
     9     8     9    1
    10     8    10    1
    11     8    11    1
@<TRIPOS>MOLECULE
*****
 11 11 0 0 0
SMALL
GASTEIGER
****
libRbt.so/2013.1/901 2013/11/27
@<TRIPOS>ATOM
      1 C           9.5062    0.8423   -2.1900 C.ar    1  UNL1        0.0328
      2 C          10.8674    1.1364   -2.4507 C.ar    1  UNL1        0.0014
      3 C          11.3008    1.4675   -3.7480 C.ar    1  UNL1       -0.0001
      4 C          10.3783    1.5124   -4.8078 C.ar    1  UNL1       -0.0000
      5 C           9.0203    1.2417   -4.5656 C.ar    1  UNL1       -0.0001
      6 C           8.5888    0.9108   -3.2675 C.ar    1  UNL1        0.0014
      7 C           9.0456    0.4946   -0.8088 C.3     1  UNL1        0.1367
      8 N           8.5882    1.6383    0.0863 N.4     1  UNL1        0.3140
      9 C           7.6320    2.5509   -0.6444 C.3     1  UNL1        0.1713
     10 C           7.9269    1.1158    1.3397 C.3     1  UNL1        0.1713
     11 C           9.8044    2.4436    0.4882 C.3     1  UNL1        0.1713
@<TRIPOS>BOND
     1     1     2   ar
     2     1     6   ar
     3     1     7    1
     4     2     3   ar
     5     3     4   ar
     6     4     5   ar
     7     5     6   ar
     8     7     8    1
     9     8     9    1
    10     8    10    1
    11     8    11    1
@<TRIPOS>MOLECULE
*****
 11 11 0 0 0
SMALL
GASTEIGER
****
libRbt.so/2013.1/901 2013/11/27
@<TRIPOS>ATOM
      1 C           9.5136    0.8528   -2.1356 C.ar    1  UNL1        0.0328
      2 C           8.5705    0.9168   -3.1910 C.ar    1  UNL1        0.0014
      3 C           8.9714    1.2364   -4.5016 C.ar    1  UNL1       -0.0001
      4 C          10.3247    1.4955   -4.7797 C.ar    1  UNL1       -0.0000
      5 C          11.2781    1.4189   -3.7495 C.ar    1  UNL1       -0.0001
      6 C          10.8752    1.0991   -2.4395 C.ar    1  UNL1        0.0014
      7 C           9.0867    0.5083   -0.7428 C.3     1  UNL1        0.1367
      8 N           8.6375    1.6524    0.1559 N.4     1  UNL1        0.3140
      9 C           7.5762    2.4887   -0.5190 C.3     1  UNL1        0.1713
     10 C           8.1082    1.1336    1.4719 C.3     1  UNL1        0.1713
     11 C           9.8340    2.5347    0.4369 C.3     1  UNL1        0.1713
@<TRIPOS>BOND
     1     1     2   ar
     2     1     6   ar
     3     1     7    1
     4     2     3   ar
     5     3     4   ar
     6     4     5   ar
     7     5     6   ar
     8     7     8    1
     9     8     9    1
    10     8    10    1
    11     8    11    1
@<TRIPOS>MOLECULE
*****
 11 11 0 0 0
SMALL
GASTEIGER
****
libRbt.so/2013.1/901 2013/11/27
@<TRIPOS>ATOM
      1 C           9.5328    0.8731   -2.0245 C.ar    1  UNL1        0.0328
      2 C          10.8760    1.2030   -2.3318 C.ar    1  UNL1        0.0014
      3 C          11.2579    1.5325   -3.6456 C.ar    1  UNL1       -0.0001
      4 C          10.3011    1.5400   -4.6754 C.ar    1  UNL1       -0.0000
      5 C           8.9599    1.2334   -4.3868 C.ar    1  UNL1       -0.0001
      6 C           8.5799    0.9041   -3.0723 C.ar    1  UNL1        0.0014
      7 C           9.1268    0.5271   -0.6258 C.3     1  UNL1        0.1367
      8 N           8.6780    1.6685    0.2766 N.4     1  UNL1        0.3140
      9 C           8.0871    1.1433    1.5635 C.3     1  UNL1        0.1713
     10 C           9.8279    2.5956    0.5920 C.3     1  UNL1        0.1713
     11 C           7.6126    2.4592   -0.4505 C.3     1  UNL1        0.1713
@<TRIPOS>BOND
     1     1     2   ar
     2     1     6   ar
     3     1     7    1
     4     2     3   ar
     5     3     4   ar
     6     4     5   ar
     7     5     6   ar
     8     7     8    1
     9     8     9    1
    10     8    10    1
    11     8    11    1
@<TRIPOS>MOLECULE
*****
 11 11 0 0 0
SMALL
GASTEIGER
****
libRbt.so/2013.1/901 2013/11/27
@<TRIPOS>ATOM
      1 C           9.8437    0.9598   -1.1784 C.ar    1  UNL1        0.0328
      2 C           8.5257    0.5669   -0.8379 C.ar    1  UNL1        0.0014
      3 C           7.9139    1.0312    0.3413 C.ar    1  UNL1       -0.0001
      4 C           8.6100    1.8995    1.2001 C.ar    1  UNL1       -0.0000
      5 C           9.9118    2.3152    0.8703 C.ar    1  UNL1       -0.0001
      6 C          10.5219    1.8498   -0.3095 C.ar    1  UNL1        0.0014
      7 C          10.4919    0.4688   -2.4352 C.3     1  UNL1        0.1367
      8 N          10.2796    1.2894   -3.7002 N.4     1  UNL1        0.3140
      9 C          11.0296    0.6920   -4.8672 C.3     1  UNL1        0.1713
     10 C           8.8120    1.3892   -4.0428 C.3     1  UNL1        0.1713
     11 C          10.8092    2.6855   -3.4562 C.3     1  UNL1        0.1713
@<TRIPOS>BOND
     1     1     2   ar
     2     1     6   ar
     3     1     7    1
     4     2     3   ar
     5     3     4   ar
     6     4     5   ar
     7     5     6   ar
     8     7     8    1
     9     8     9    1
    10     8    10    1
    11     8    11    1
@<TRIPOS>MOLECULE
*****
 7 7 0 0 0
SMALL
GASTEIGER
****
libRbt.so/2013.1/901 2013/11/27
@<TRIPOS>ATOM
      1 C          10.6481    0.6972   -1.5318 C.ar    1  UNL1        0.0126
      2 C          10.7678   -0.1194   -2.6725 C.ar    1  UNL1        0.0758
      3 C          10.9318    0.4893   -3.9304 C.ar    1  UNL1        0.2875
      4 N          10.9725    1.8445   -4.0312 N.ar    1  UNL1       -0.1931
      5 C          10.8592    2.6547   -2.9459 C.ar    1  UNL1        0.2875
      6 C          10.6935    2.0971   -1.6641 C.ar    1  UNL1        0.0758
      7 H          11.0862    2.2465   -4.9074 H       1  UNL1        0.4539
@<TRIPOS>BOND
     1     1     2   ar
     2     1     6   ar
     3     2     3   ar
     4     3     4   ar
     5     4     5   ar
     6     4     7    1
     7     5     6   ar
@<TRIPOS>MOLECULE
*****
 7 7 0 0 0
SMALL
GASTEIGER
****
libRbt.so/2013.1/901 2013/11/27
@<TRIPOS>ATOM
      1 C          10.8648    0.1524   -3.7242 C.ar    1  UNL1        0.0126
      2 C          10.7776    0.2716   -2.3241 C.ar    1  UNL1        0.0758
      3 C          10.3683    1.4987   -1.7702 C.ar    1  UNL1        0.2875
      4 N          10.0644    2.5452   -2.5830 N.ar    1  UNL1       -0.1931
      5 C          10.1405    2.4558   -3.9371 C.ar    1  UNL1        0.2875
      6 C          10.5446    1.2511   -4.5425 C.ar    1  UNL1        0.0758
      7 H           9.7839    3.3839   -2.1829 H       1  UNL1        0.4539
@<TRIPOS>BOND
     1     1     2   ar
     2     1     6   ar
     3     2     3   ar
     4     3     4   ar
     5     4     5   ar
     6     4     7    1
     7     5     6   ar
@<TRIPOS>MOLECULE
*****
 7 7 0 0 0
SMALL
GASTEIGER
****
libRbt.so/2013.1/901 2013/11/27
@<TRIPOS>ATOM
      1 C          10.8977    0.2219   -3.9146 C.ar    1  UNL1        0.0126
      2 C          10.8461    0.2108   -2.5077 C.ar    1  UNL1        0.0758
      3 C          10.4311    1.3739   -1.8332 C.ar    1  UNL1        0.2875
      4 N          10.0879    2.4844   -2.5384 N.ar    1  UNL1       -0.1931
      5 C          10.1290    2.5207   -3.8965 C.ar    1  UNL1        0.2875
      6 C          10.5370    1.3844   -4.6201 C.ar    1  UNL1        0.0758
      7 H           9.8040    3.2774   -2.0559 H       1  UNL1        0.4539
@<TRIPOS>BOND
     1     1     2   ar
     2     1     6   ar
     3     2     3   ar
     4     3     4   ar
     5     4     5   ar
     6     4     7    1
     7     5     6   ar
@<TRIPOS>MOLECULE
*****
 7 7 0 0 0
SMALL
GASTEIGER
****
libRbt.so/2013.1/901 2013/11/27
@<TRIPOS>ATOM
      1 C          10.0592    0.3880   -1.9583 C.ar    1  UNL1        0.0126
      2 C          10.9136    0.4472   -3.0758 C.ar    1  UNL1        0.0758
      3 C          10.4236    0.9888   -4.2785 C.ar    1  UNL1        0.2875
      4 N           9.1446    1.4444   -4.3491 N.ar    1  UNL1       -0.1931
      5 C           8.3001    1.3984   -3.2851 C.ar    1  UNL1        0.2875
      6 C           8.7400    0.8664   -2.0585 C.ar    1  UNL1        0.0758
      7 H           8.8241    1.8146   -5.1872 H       1  UNL1        0.4539
@<TRIPOS>BOND
     1     1     2   ar
     2     1     6   ar
     3     2     3   ar
     4     3     4   ar
     5     4     5   ar
     6     4     7    1
     7     5     6   ar
@<TRIPOS>MOLECULE
*****
 7 7 0 0 0
SMALL
GASTEIGER
****
libRbt.so/2013.1/901 2013/11/27
@<TRIPOS>ATOM
      1 C          10.9102    0.0620   -3.4791 C.ar    1  UNL1        0.0126
      2 C          10.6999    1.1383   -4.3620 C.ar    1  UNL1        0.0758
      3 C          10.2851    2.3766   -3.8381 C.ar    1  UNL1        0.2875
      4 N          10.0936    2.5202   -2.4998 N.ar    1  UNL1       -0.1931
      5 C          10.2897    1.4972   -1.6267 C.ar    1  UNL1        0.2875
      6 C          10.7047    0.2376   -2.0984 C.ar    1  UNL1        0.0758
      7 H           9.8074    3.3819   -2.1567 H       1  UNL1        0.4539
@<TRIPOS>BOND
     1     1     2   ar
     2     1     6   ar
     3     2     3   ar
     4     3     4   ar
     5     4     5   ar
     6     4     7    1
     7     5     6   ar
@<TRIPOS>MOLECULE
*****
 7 7 0 0 0
SMALL
GASTEIGER
****
libRbt.so/2013.1/901 2013/11/27
@<TRIPOS>ATOM
      1 C           9.8330    0.9047   -4.5280 C.ar    1  UNL1        0.1401
      2 C           8.6043    1.2457   -3.9288 C.ar    1  UNL1        0.0296
      3 C           8.4403    1.1197   -2.5361 C.ar    1  UNL1        0.0023
      4 C           9.5042    0.6528   -1.7409 C.ar    1  UNL1        0.0001
      5 C          10.7325    0.3117   -2.3388 C.ar    1  UNL1        0.0023
      6 C          10.8970    0.4375   -3.7315 C.ar    1  UNL1        0.0296
      7 F           9.9852    1.0213   -5.8186 F       1  UNL1       -0.2042
@<TRIPOS>BOND
     1     1     2   ar
     2     1     6   ar
     3     1     7    1
     4     2     3   ar
     5     3     4   ar
     6     4     5   ar
     7     5     6   ar
@<TRIPOS>MOLECULE
*****
 7 7 0 0 0
SMALL
GASTEIGER
****
libRbt.so/2013.1/901 2013/11/27
@<TRIPOS>ATOM
      1 C           9.5959    0.6648   -2.1624 C.ar    1  UNL1        0.1401
      2 C          10.8615    0.4883   -2.7559 C.ar    1  UNL1        0.0296
      3 C          11.0197    0.6642   -4.1438 C.ar    1  UNL1        0.0023
      4 C           9.9132    1.0165   -4.9400 C.ar    1  UNL1        0.0001
      5 C           8.6481    1.1931   -4.3478 C.ar    1  UNL1        0.0023
      6 C           8.4892    1.0174   -2.9598 C.ar    1  UNL1        0.0296
      7 F           9.4490    0.5019   -0.8762 F       1  UNL1       -0.2042
@<TRIPOS>BOND
     1     1     2   ar
     2     1     6   ar
     3     1     7    1
     4     2     3   ar
     5     3     4   ar
     6     4     5   ar
     7     5     6   ar
@<TRIPOS>MOLECULE
*****
 7 7 0 0 0
SMALL
GASTEIGER
****
libRbt.so/2013.1/901 2013/11/27
@<TRIPOS>ATOM
      1 C          10.5879    0.6743   -4.5040 C.ar    1  UNL1        0.1401
      2 C           9.2777    1.1417   -4.7278 C.ar    1  UNL1        0.0296
      3 C           8.3814    1.2700   -3.6496 C.ar    1  UNL1        0.0023
      4 C           8.7937    0.9313   -2.3466 C.ar    1  UNL1        0.0001
      5 C          10.1028    0.4642   -2.1220 C.ar    1  UNL1        0.0023
      6 C          10.9996    0.3357   -3.1999 C.ar    1  UNL1        0.0296
      7 F          11.4187    0.5554   -5.5030 F       1  UNL1       -0.2042
@<TRIPOS>BOND
     1     1     2   ar
     2     1     6   ar
     3     1     7    1
     4     2     3   ar
     5     3     4   ar
     6     4     5   ar
     7     5     6   ar
@<TRIPOS>MOLECULE
*****
 7 7 0 0 0
SMALL
GASTEIGER
****
libRbt.so/2013.1/901 2013/11/27
@<TRIPOS>ATOM
      1 C          10.6355    1.0342   -1.5774 C.ar    1  UNL1        0.1401
      2 C          10.7593    2.3515   -2.0615 C.ar    1  UNL1        0.0296
      3 C          10.9499    2.5817   -3.4374 C.ar    1  UNL1        0.0023
      4 C          11.0170    1.4955   -4.3308 C.ar    1  UNL1        0.0001
      5 C          10.8934    0.1787   -3.8478 C.ar    1  UNL1        0.0023
      6 C          10.7028   -0.0521   -2.4720 C.ar    1  UNL1        0.0296
      7 F          10.4589    0.8205   -0.3024 F       1  UNL1       -0.2042
@<TRIPOS>BOND
     1     1     2   ar
     2     1     6   ar
     3     1     7    1
     4     2     3   ar
     5     3     4   ar
     6     4     5   ar
     7     5     6   ar
@<TRIPOS>MOLECULE
*****
 7 7 0 0 0
SMALL
GASTEIGER
****
libRbt.so/2013.1/901 2013/11/27
@<TRIPOS>ATOM
      1 C          10.5737    1.4378   -2.4930 C.ar    1  UNL1        0.1401
      2 C          11.3062    1.3651   -3.6944 C.ar    1  UNL1        0.0296
      3 C          10.6387    1.1459   -4.9146 C.ar    1  UNL1        0.0023
      4 C           9.2386    0.9992   -4.9353 C.ar    1  UNL1        0.0001
      5 C           8.5058    1.0717   -3.7352 C.ar    1  UNL1        0.0023
      6 C           9.1727    1.2908   -2.5147 C.ar    1  UNL1        0.0296
      7 F          11.1920    1.6409   -1.3621 F       1  UNL1       -0.2042
@<TRIPOS>BOND
     1     1     2   ar
     2     1     6   ar
     3     1     7    1
     4     2     3   ar
     5     3     4   ar
     6     4     5   ar
     7     5     6   ar
@<TRIPOS>MOLECULE
*****
 7 7 0 0 0
SMALL
GASTEIGER
****
libRbt.so/2013.1/901 2013/11/27
@<TRIPOS>ATOM
      1 C          10.1132    1.1956   -2.0663 C.ar    1  UNL1        0.0577
      2 C          11.2049    1.1972   -2.9579 C.ar    1  UNL1        0.0114
      3 C          10.9823    1.1442   -4.3472 C.ar    1  UNL1        0.0009
      4 C           9.6678    1.0894   -4.8486 C.ar    1  UNL1        0.0001
      5 C           8.5758    1.0877   -3.9598 C.ar    1  UNL1        0.0009
      6 C           8.7981    1.1407   -2.5704 C.ar    1  UNL1        0.0114
      7 CL         10.3805    1.2593   -0.3966 Cl      1  UNL1       -0.0822
@<TRIPOS>BOND
     1     1     2   ar
     2     1     6   ar
     3     1     7    1
     4     2     3   ar
     5     3     4   ar
     6     4     5   ar
     7     5     6   ar
@<TRIPOS>MOLECULE
*****
 7 7 0 0 0
SMALL
GASTEIGER
****
libRbt.so/2013.1/901 2013/11/27
@<TRIPOS>ATOM
      1 C          10.2381    1.2481   -2.2949 C.ar    1  UNL1        0.0577
      2 C          11.2938    1.3197   -3.2261 C.ar    1  UNL1        0.0114
      3 C          11.0246    1.2443   -4.6062 C.ar    1  UNL1        0.0009
      4 C           9.6994    1.0973   -5.0586 C.ar    1  UNL1        0.0001
      5 C           8.6434    1.0255   -4.1301 C.ar    1  UNL1        0.0009
      6 C           8.9123    1.1008   -2.7499 C.ar    1  UNL1        0.0114
      7 CL         10.5614    1.3386   -0.6363 Cl      1  UNL1       -0.0822
@<TRIPOS>BOND
     1     1     2   ar
     2     1     6   ar
     3     1     7    1
     4     2     3   ar
     5     3     4   ar
     6     4     5   ar
     7     5     6   ar
@<TRIPOS>MOLECULE
*****
 7 7 0 0 0
SMALL
GASTEIGER
****
libRbt.so/2013.1/901 2013/11/27
@<TRIPOS>ATOM
      1 C          10.2210    1.2550   -2.3201 C.ar    1  UNL1        0.0577
      2 C           8.8958    1.1170   -2.7802 C.ar    1  UNL1        0.0114
      3 C           8.6332    1.0265   -4.1606 C.ar    1  UNL1        0.0009
      4 C           9.6947    1.0737   -5.0843 C.ar    1  UNL1        0.0001
      5 C          11.0192    1.2114   -4.6270 C.ar    1  UNL1        0.0009
      6 C          11.2821    1.3020   -3.2466 C.ar    1  UNL1        0.0114
      7 CL         10.5368    1.3638   -0.6612 Cl      1  UNL1       -0.0822
@<TRIPOS>BOND
     1     1     2   ar
     2     1     6   ar
     3     1     7    1
     4     2     3   ar
     5     3     4   ar
     6     4     5   ar
     7     5     6   ar
@<TRIPOS>MOLECULE
*****
 7 7 0 0 0
SMALL
GASTEIGER
****
libRbt.so/2013.1/901 2013/11/27
@<TRIPOS>ATOM
      1 C           9.8562    1.0077   -3.4543 C.ar    1  UNL1        0.0577
      2 C          10.9966    1.1139   -2.6327 C.ar    1  UNL1        0.0114
      3 C          10.8541    1.2025   -1.2347 C.ar    1  UNL1        0.0009
      4 C           9.5713    1.1850   -0.6546 C.ar    1  UNL1        0.0001
      5 C           8.4308    1.0789   -1.4735 C.ar    1  UNL1        0.0009
      6 C           8.5730    0.9904   -2.8716 C.ar    1  UNL1        0.0114
      7 CL         10.0272    0.9012   -5.1345 Cl      1  UNL1       -0.0822
@<TRIPOS>BOND
     1     1     2   ar
     2     1     6   ar
     3     1     7    1
     4     2     3   ar
     5     3     4   ar
     6     4     5   ar
     7     5     6   ar
@<TRIPOS>MOLECULE
*****
 7 7 0 0 0
SMALL
GASTEIGER
****
libRbt.so/2013.1/901 2013/11/27
@<TRIPOS>ATOM
      1 C          10.1899    0.8436   -3.7242 C.ar    1  UNL1        0.0577
      2 C           8.8023    1.0881   -3.7635 C.ar    1  UNL1        0.0114
      3 C           8.0629    1.1559   -2.5671 C.ar    1  UNL1        0.0009
      4 C           8.7089    0.9795   -1.3286 C.ar    1  UNL1        0.0001
      5 C          10.0949    0.7351   -1.2871 C.ar    1  UNL1        0.0009
      6 C          10.8346    0.6673   -2.4833 C.ar    1  UNL1        0.0114
      7 CL         11.0787    0.7621   -5.1619 Cl      1  UNL1       -0.0822
@<TRIPOS>BOND
     1     1     2   ar
     2     1     6   ar
     3     1     7    1
     4     2     3   ar
     5     3     4   ar
     6     4     5   ar
     7     5     6   ar
@<TRIPOS>MOLECULE
*****
 7 7 0 0 0
SMALL
GASTEIGER
****
libRbt.so/2013.1/901 2013/11/27
@<TRIPOS>ATOM
      1 C           9.8406    0.9325   -3.4715 C.ar    1  UNL1        0.0346
      2 C          10.9323    0.8804   -2.5831 C.ar    1  UNL1        0.0067
      3 C          10.7107    0.8767   -1.1928 C.ar    1  UNL1        0.0005
      4 C           9.3968    0.9250   -0.6892 C.ar    1  UNL1        0.0000
      5 C           8.3047    0.9771   -1.5763 C.ar    1  UNL1        0.0005
      6 C           8.5266    0.9809   -2.9667 C.ar    1  UNL1        0.0067
      7 BR         10.1336    0.9375   -5.3087 Br      1  UNL1       -0.0490
@<TRIPOS>BOND
     1     1     2   ar
     2     1     6   ar
     3     1     7    1
     4     2     3   ar
     5     3     4   ar
     6     4     5   ar
     7     5     6   ar
@<TRIPOS>MOLECULE
*****
 7 7 0 0 0
SMALL
GASTEIGER
****
libRbt.so/2013.1/901 2013/11/27
@<TRIPOS>ATOM
      1 C           9.8429    0.9675   -3.4871 C.ar    1  UNL1        0.0346
      2 C          10.9487    0.9804   -2.6149 C.ar    1  UNL1        0.0067
      3 C          10.7478    1.0058   -1.2216 C.ar    1  UNL1        0.0005
      4 C           9.4405    1.0183   -0.6990 C.ar    1  UNL1        0.0000
      5 C           8.3344    1.0054   -1.5699 C.ar    1  UNL1        0.0005
      6 C           8.5356    0.9800   -2.9632 C.ar    1  UNL1        0.0067
      7 BR         10.1086    0.9339   -5.3282 Br      1  UNL1       -0.0490
@<TRIPOS>BOND
     1     1     2   ar
     2     1     6   ar
     3     1     7    1
     4     2     3   ar
     5     3     4   ar
     6     4     5   ar
     7     5     6   ar
@<TRIPOS>MOLECULE
*****
 7 7 0 0 0
SMALL
GASTEIGER
****
libRbt.so/2013.1/901 2013/11/27
@<TRIPOS>ATOM
      1 C          10.0274    1.1623   -2.3543 C.ar    1  UNL1        0.0346
      2 C          11.2162    1.2079   -3.1081 C.ar    1  UNL1        0.0067
      3 C          11.1620    1.1637   -4.5143 C.ar    1  UNL1        0.0005
      4 C           9.9184    1.0739   -5.1683 C.ar    1  UNL1        0.0000
      5 C           8.7293    1.0282   -4.4158 C.ar    1  UNL1        0.0005
      6 C           8.7839    1.0724   -3.0096 C.ar    1  UNL1        0.0067
      7 BR         10.0992    1.2207   -0.4962 Br      1  UNL1       -0.0490
@<TRIPOS>BOND
     1     1     2   ar
     2     1     6   ar
     3     1     7    1
     4     2     3   ar
     5     3     4   ar
     6     4     5   ar
     7     5     6   ar
@<TRIPOS>MOLECULE
*****
 7 7 0 0 0
SMALL
GASTEIGER
****
libRbt.so/2013.1/901 2013/11/27
@<TRIPOS>ATOM
      1 C          10.1004    1.1719   -2.4421 C.ar    1  UNL1        0.0346
      2 C          11.2382    1.1821   -3.2722 C.ar    1  UNL1        0.0067
      3 C          11.0913    1.1204   -4.6710 C.ar    1  UNL1        0.0005
      4 C           9.8061    1.0484   -5.2414 C.ar    1  UNL1        0.0000
      5 C           8.6680    1.0382   -4.4126 C.ar    1  UNL1        0.0005
      6 C           8.8152    1.0999   -3.0137 C.ar    1  UNL1        0.0067
      7 BR         10.2947    1.2535   -0.5936 Br      1  UNL1       -0.0490
@<TRIPOS>BOND
     1     1     2   ar
     2     1     6   ar
     3     1     7    1
     4     2     3   ar
     5     3     4   ar
     6     4     5   ar
     7     5     6   ar
@<TRIPOS>MOLECULE
*****
 7 7 0 0 0
SMALL
GASTEIGER
****
libRbt.so/2013.1/901 2013/11/27
@<TRIPOS>ATOM
      1 C          10.0126    1.0139   -3.3343 C.ar    1  UNL1        0.0346
      2 C          11.1186    1.1973   -2.4818 C.ar    1  UNL1        0.0067
      3 C          10.9325    1.2541   -1.0874 C.ar    1  UNL1        0.0005
      4 C           9.6399    1.1275   -0.5439 C.ar    1  UNL1        0.0000
      5 C           8.5336    0.9440   -1.3952 C.ar    1  UNL1        0.0005
      6 C           8.7199    0.8873   -2.7896 C.ar    1  UNL1        0.0067
      7 BR         10.2586    0.9388   -5.1770 Br      1  UNL1       -0.0490
@<TRIPOS>BOND
     1     1     2   ar
     2     1     6   ar
     3     1     7    1
     4     2     3   ar
     5     3     4   ar
     6     4     5   ar
     7     5     6   ar
@<TRIPOS>MOLECULE
*****
 7 7 0 0 0
SMALL
GASTEIGER
****
libRbt.so/2013.1/901 2013/11/27
@<TRIPOS>ATOM
      1 C           9.9842    1.1925   -2.5727 C.ar    1  UNL1        0.0301
      2 C          11.2065    1.2134   -3.2715 C.ar    1  UNL1        0.0058
      3 C          11.2171    1.1195   -4.6763 C.ar    1  UNL1        0.0004
      4 C          10.0051    1.0047   -5.3833 C.ar    1  UNL1        0.0000
      5 C           8.7826    0.9838   -4.6854 C.ar    1  UNL1        0.0004
      6 C           8.7723    1.0777   -3.2806 C.ar    1  UNL1        0.0058
      7 I           9.9689    1.3294   -0.5242 I       1  UNL1       -0.0425
@<TRIPOS>BOND
     1     1     2   ar
     2     1     6   ar
     3     1     7    1
     4     2     3   ar
     5     3     4   ar
     6     4     5   ar
     7     5     6   ar
@<TRIPOS>MOLECULE
*****
 7 7 0 0 0
SMALL
GASTEIGER
****
libRbt.so/2013.1/901 2013/11/27
@<TRIPOS>ATOM
      1 C          10.0034    1.1605   -2.5801 C.ar    1  UNL1        0.0301
      2 C           8.7655    1.0962   -3.2480 C.ar    1  UNL1        0.0058
      3 C           8.7257    1.0177   -4.6532 C.ar    1  UNL1        0.0004
      4 C           9.9243    1.0034   -5.3915 C.ar    1  UNL1        0.0000
      5 C          11.1625    1.0676   -4.7245 C.ar    1  UNL1        0.0004
      6 C          11.2019    1.1461   -3.3193 C.ar    1  UNL1        0.0058
      7 I          10.0611    1.2750   -0.5309 I       1  UNL1       -0.0425
@<TRIPOS>BOND
     1     1     2   ar
     2     1     6   ar
     3     1     7    1
     4     2     3   ar
     5     3     4   ar
     6     4     5   ar
     7     5     6   ar
@<TRIPOS>MOLECULE
*****
 7 7 0 0 0
SMALL
GASTEIGER
****
libRbt.so/2013.1/901 2013/11/27
@<TRIPOS>ATOM
      1 C          10.1309    1.0002   -3.0291 C.ar    1  UNL1        0.0301
      2 C           8.7556    0.8929   -2.7465 C.ar    1  UNL1        0.0058
      3 C           8.3022    0.9578   -1.4151 C.ar    1  UNL1        0.0004
      4 C           9.2242    1.1302   -0.3652 C.ar    1  UNL1        0.0000
      5 C          10.5995    1.2375   -0.6469 C.ar    1  UNL1        0.0004
      6 C          11.0524    1.1726   -1.9784 C.ar    1  UNL1        0.0058
      7 I          10.7916    0.9055   -4.9707 I       1  UNL1       -0.0425
@<TRIPOS>BOND
     1     1     2   ar
     2     1     6   ar
     3     1     7    1
     4     2     3   ar
     5     3     4   ar
     6     4     5   ar
     7     5     6   ar
@<TRIPOS>MOLECULE
*****
 7 7 0 0 0
SMALL
GASTEIGER
****
libRbt.so/2013.1/901 2013/11/27
@<TRIPOS>ATOM
      1 C           9.9681    1.1709   -2.5971 C.ar    1  UNL1        0.0301
      2 C           8.7420    1.1220   -3.2878 C.ar    1  UNL1        0.0058
      3 C           8.7274    1.0217   -4.6921 C.ar    1  UNL1        0.0004
      4 C           9.9393    0.9701   -5.4067 C.ar    1  UNL1        0.0000
      5 C          11.1656    1.0189   -4.7168 C.ar    1  UNL1        0.0004
      6 C          11.1798    1.1193   -3.3126 C.ar    1  UNL1        0.0058
      7 I           9.9891    1.3173   -0.5492 I       1  UNL1       -0.0425
@<TRIPOS>BOND
     1     1     2   ar
     2     1     6   ar
     3     1     7    1
     4     2     3   ar
     5     3     4   ar
     6     4     5   ar
     7     5     6   ar
@<TRIPOS>MOLECULE
*****
 7 7 0 0 0
SMALL
GASTEIGER
****
libRbt.so/2013.1/901 2013/11/27
@<TRIPOS>ATOM
      1 C          10.1242    1.0082   -3.0101 C.ar    1  UNL1        0.0301
      2 C          11.0635    1.2342   -1.9857 C.ar    1  UNL1        0.0058
      3 C          10.6388    1.3204   -0.6461 C.ar    1  UNL1        0.0004
      4 C           9.2740    1.1807   -0.3301 C.ar    1  UNL1        0.0000
      5 C           8.3342    0.9548   -1.3538 C.ar    1  UNL1        0.0004
      6 C           8.7593    0.8686   -2.6932 C.ar    1  UNL1        0.0058
      7 I          10.7439    0.8825   -4.9635 I       1  UNL1       -0.0425
@<TRIPOS>BOND
     1     1     2   ar
     2     1     6   ar
     3     1     7    1
     4     2     3   ar
     5     3     4   ar
     6     4     5   ar
     7     5     6   ar
@<TRIPOS>MOLECULE
*****
 9 9 0 0 0
SMALL
GASTEIGER
****
libRbt.so/2013.1/901 2013/11/27
@<TRIPOS>ATOM
      1 C           8.5475    1.0916   -2.9207 C.ar    1  UNL1        0.0140
      2 C           8.6483    1.2312   -4.3285 C.ar    1  UNL1        0.0011
      3 C           9.8524    0.9523   -5.0005 C.ar    1  UNL1        0.0000
      4 C          10.9784    0.5281   -4.2747 C.ar    1  UNL1        0.0000
      5 C          10.9011    0.3829   -2.8797 C.ar    1  UNL1        0.0000
      6 C           9.6968    0.6622   -2.2096 C.ar    1  UNL1        0.0011
      7 C           7.3341    1.3722   -2.2397 C.2     1  UNL1        0.0729
      8 O           7.2249    1.2660   -0.9964 O.co2   1  UNL1       -0.5446
      9 O           6.2208    1.7721   -2.8964 O.co2   1  UNL1       -0.5446
@<TRIPOS>BOND
     1     1     2   ar
     2     1     6   ar
     3     1     7    1
     4     2     3   ar
     5     3     4   ar
     6     4     5   ar
     7     5     6   ar
     8     7     8   ar
     9     7     9   ar
@<TRIPOS>MOLECULE
*****
 9 9 0 0 0
SMALL
GASTEIGER
****
libRbt.so/2013.1/901 2013/11/27
@<TRIPOS>ATOM
      1 C          11.6456    3.6894  -12.1857 C.ar    1  UNL1        0.0140
      2 C          10.4560    3.6087  -11.4178 C.ar    1  UNL1        0.0011
      3 C          10.1551    4.5772  -10.4428 C.ar    1  UNL1        0.0000
      4 C          11.0405    5.6451  -10.2186 C.ar    1  UNL1        0.0000
      5 C          12.2246    5.7448  -10.9676 C.ar    1  UNL1        0.0000
      6 C          12.5238    4.7758  -11.9418 C.ar    1  UNL1        0.0011
      7 C          11.9522    2.7138  -13.1702 C.2     1  UNL1        0.0729
      8 O          13.0790    2.6421  -13.7126 O.co2   1  UNL1       -0.5446
      9 O          11.0417    1.8015  -13.5814 O.co2   1  UNL1       -0.5446
@<TRIPOS>BOND
     1     1     2   ar
     2     1     6   ar
     3     1     7    1
     4     2     3   ar
     5     3     4   ar
     6     4     5   ar
     7     5     6   ar
     8     7     8   ar
     9     7     9   ar
@<TRIPOS>MOLECULE
*****
 9 9 0 0 0
SMALL
GASTEIGER
****
libRbt.so/2013.1/901 2013/11/27
@<TRIPOS>ATOM
      1 C           8.4973    1.0995   -2.9224 C.ar    1  UNL1        0.0140
      2 C           8.6305    1.2263   -4.3287 C.ar    1  UNL1        0.0011
      3 C           9.8461    0.9295   -4.9717 C.ar    1  UNL1        0.0000
      4 C          10.9514    0.4999   -4.2178 C.ar    1  UNL1        0.0000
      5 C          10.8420    0.3672   -2.8237 C.ar    1  UNL1        0.0000
      6 C           9.6261    0.6644   -2.1826 C.ar    1  UNL1        0.0011
      7 C           7.2722    1.3982   -2.2706 C.2     1  UNL1        0.0729
      8 O           6.2441    1.7363   -2.9013 O.co2   1  UNL1       -0.5446
      9 O           7.1433    1.3348   -0.9253 O.co2   1  UNL1       -0.5446
@<TRIPOS>BOND
     1     1     2   ar
     2     1     6   ar
     3     1     7    1
     4     2     3   ar
     5     3     4   ar
     6     4     5   ar
     7     5     6   ar
     8     7     8   ar
     9     7     9   ar
@<TRIPOS>MOLECULE
*****
 9 9 0 0 0
SMALL
GASTEIGER
****
libRbt.so/2013.1/901 2013/11/27
@<TRIPOS>ATOM
      1 C           8.5136    1.0693   -2.9258 C.ar    1  UNL1        0.0140
      2 C           8.6578    1.2243   -4.3282 C.ar    1  UNL1        0.0011
      3 C           9.8842    0.9593   -4.9648 C.ar    1  UNL1        0.0000
      4 C          10.9893    0.5340   -4.2082 C.ar    1  UNL1        0.0000
      5 C          10.8691    0.3738   -2.8179 C.ar    1  UNL1        0.0000
      6 C           9.6425    0.6391   -2.1832 C.ar    1  UNL1        0.0011
      7 C           7.2777    1.3358   -2.2805 C.2     1  UNL1        0.0729
      8 O           6.2682    1.7330   -2.9067 O.co2   1  UNL1       -0.5446
      9 O           7.1177    1.1757   -0.9467 O.co2   1  UNL1       -0.5446
@<TRIPOS>BOND
     1     1     2   ar
     2     1     6   ar
     3     1     7    1
     4     2     3   ar
     5     3     4   ar
     6     4     5   ar
     7     5     6   ar
     8     7     8   ar
     9     7     9   ar
@<TRIPOS>MOLECULE
*****
 9 9 0 0 0
SMALL
GASTEIGER
****
libRbt.so/2013.1/901 2013/11/27
@<TRIPOS>ATOM
      1 C           8.5152    1.1301   -2.8966 C.ar    1  UNL1        0.0140
      2 C           9.6342    0.6273   -2.1850 C.ar    1  UNL1        0.0011
      3 C          10.8420    0.3356   -2.8449 C.ar    1  UNL1        0.0000
      4 C          10.9515    0.5422   -4.2305 C.ar    1  UNL1        0.0000
      5 C           9.8559    1.0394   -4.9553 C.ar    1  UNL1        0.0000
      6 C           8.6494    1.3304   -4.2941 C.ar    1  UNL1        0.0011
      7 C           7.2952    1.4254   -2.2338 C.2     1  UNL1        0.0729
      8 O           7.1555    1.2867   -0.9968 O.co2   1  UNL1       -0.5446
      9 O           6.2084    1.8755   -2.9022 O.co2   1  UNL1       -0.5446
@<TRIPOS>BOND
     1     1     2   ar
     2     1     6   ar
     3     1     7    1
     4     2     3   ar
     5     3     4   ar
     6     4     5   ar
     7     5     6   ar
     8     7     8   ar
     9     7     9   ar
@<TRIPOS>MOLECULE
*****
 11 11 0 0 0
SMALL
GASTEIGER
****
libRbt.so/2013.1/901 2013/11/27
@<TRIPOS>ATOM
      1 C           8.6703    0.5875   -1.5478 C.ar    1  UNL1       -0.0026
      2 C           8.0980    0.8662   -0.2936 C.ar    1  UNL1       -0.0003
      3 C           8.8451    1.5457    0.6835 C.ar    1  UNL1       -0.0000
      4 C          10.1705    1.9283    0.4127 C.ar    1  UNL1       -0.0003
      5 C          10.7435    1.6434   -0.8422 C.ar    1  UNL1       -0.0026
      6 C           9.9963    0.9820   -1.8473 C.ar    1  UNL1       -0.0007
      7 C          10.5690    0.7418   -3.1991 C.3     1  UNL1        0.1521
      8 O           9.9025    3.3439   -4.2678 O.co2   1  UNL1       -0.2905
      9 S           9.7127    1.6660   -4.5268 S.3     1  UNL1       -0.1028
     10 O           8.1460    1.3296   -4.4893 O.2     1  UNL1       -0.3711
     11 O          10.3143    1.2844   -5.9613 O.2     1  UNL1       -0.3711
@<TRIPOS>BOND
     1     1     2   ar
     2     1     6   ar
     3     2     3   ar
     4     3     4   ar
     5     4     5   ar
     6     5     6   ar
     7     6     7    1
     8     7     9    1
     9     8     9    1
    10     9    10    2
    11     9    11    2
@<TRIPOS>MOLECULE
*****
 11 11 0 0 0
SMALL
GASTEIGER
****
libRbt.so/2013.1/901 2013/11/27
@<TRIPOS>ATOM
      1 C          10.8369    0.2129   -2.8701 C.ar    1  UNL1       -0.0026
      2 C          10.9265    0.3540   -4.2666 C.ar    1  UNL1       -0.0003
      3 C          10.4493    1.5214   -4.8862 C.ar    1  UNL1       -0.0000
      4 C           9.8648    2.5382   -4.1110 C.ar    1  UNL1       -0.0003
      5 C           9.7712    2.3925   -2.7131 C.ar    1  UNL1       -0.0026
      6 C          10.2701    1.2336   -2.0696 C.ar    1  UNL1       -0.0007
      7 C          10.2408    1.1033   -0.5880 C.3     1  UNL1        0.1521
      8 O           8.5203    0.9322    1.7288 O.co2   1  UNL1       -0.2905
      9 S           8.6365    1.5807    0.1527 S.3     1  UNL1       -0.1028
     10 O           7.4397    0.9756   -0.7251 O.2     1  UNL1       -0.3711
     11 O           8.4998    3.1748    0.2290 O.2     1  UNL1       -0.3711
@<TRIPOS>BOND
     1     1     2   ar
     2     1     6   ar
     3     2     3   ar
     4     3     4   ar
     5     4     5   ar
     6     5     6   ar
     7     6     7    1
     8     7     9    1
     9     8     9    1
    10     9    10    2
    11     9    11    2
@<TRIPOS>MOLECULE
*****
 11 11 0 0 0
SMALL
GASTEIGER
****
libRbt.so/2013.1/901 2013/11/27
@<TRIPOS>ATOM
      1 C           8.5101    2.4346   -1.8424 C.ar    1  UNL1       -0.0026
      2 C           7.9487    2.2330   -0.5687 C.ar    1  UNL1       -0.0003
      3 C           8.7413    1.7279    0.4759 C.ar    1  UNL1       -0.0000
      4 C          10.0895    1.4062    0.2409 C.ar    1  UNL1       -0.0003
      5 C          10.6484    1.6038   -1.0369 C.ar    1  UNL1       -0.0026
      6 C           9.8707    2.1359   -2.0943 C.ar    1  UNL1       -0.0007
      7 C          10.4716    2.4154   -3.4262 C.3     1  UNL1        0.1521
      8 O           8.5978    0.6763   -4.7759 O.co2   1  UNL1       -0.2905
      9 S          10.2585    1.0463   -4.6222 S.3     1  UNL1       -0.1028
     10 O          11.0126   -0.2604   -4.0811 O.2     1  UNL1       -0.3711
     11 O          10.8413    1.4524   -6.0578 O.2     1  UNL1       -0.3711
@<TRIPOS>BOND
     1     1     2   ar
     2     1     6   ar
     3     2     3   ar
     4     3     4   ar
     5     4     5   ar
     6     5     6   ar
     7     6     7    1
     8     7     9    1
     9     8     9    1
    10     9    10    2
    11     9    11    2
@<TRIPOS>MOLECULE
*****
 11 11 0 0 0
SMALL
GASTEIGER
****
libRbt.so/2013.1/901 2013/11/27
@<TRIPOS>ATOM
      1 C           8.7210    0.5583   -1.3311 C.ar    1  UNL1       -0.0026
      2 C           8.1669    0.8959   -0.0833 C.ar    1  UNL1       -0.0003
      3 C           8.8901    1.7039    0.8104 C.ar    1  UNL1       -0.0000
      4 C          10.1750    2.1571    0.4638 C.ar    1  UNL1       -0.0003
      5 C          10.7302    1.8134   -0.7842 C.ar    1  UNL1       -0.0026
      6 C          10.0048    1.0211   -1.7074 C.ar    1  UNL1       -0.0007
      7 C          10.5537    0.7139   -3.0555 C.3     1  UNL1        0.1521
      8 O          10.4823    1.2623   -5.8929 O.co2   1  UNL1       -0.2905
      9 S           9.7800    1.6912   -4.3959 S.3     1  UNL1       -0.1028
     10 O          10.0507    3.2511   -4.1466 O.2     1  UNL1       -0.3711
     11 O           8.2029    1.4183   -4.4581 O.2     1  UNL1       -0.3711
@<TRIPOS>BOND
     1     1     2   ar
     2     1     6   ar
     3     2     3   ar
     4     3     4   ar
     5     4     5   ar
     6     5     6   ar
     7     6     7    1
     8     7     9    1
     9     8     9    1
    10     9    10    2
    11     9    11    2
@<TRIPOS>MOLECULE
*****
 11 11 0 0 0
SMALL
GASTEIGER
****
libRbt.so/2013.1/901 2013/11/27
@<TRIPOS>ATOM
      1 C           8.7111    0.4945   -1.3220 C.ar    1  UNL1       -0.0026
      2 C           8.1498    0.8386   -0.0791 C.ar    1  UNL1       -0.0003
      3 C           8.8530    1.6795    0.8000 C.ar    1  UNL1       -0.0000
      4 C          10.1255    2.1595    0.4441 C.ar    1  UNL1       -0.0003
      5 C          10.6882    1.8093   -0.7988 C.ar    1  UNL1       -0.0026
      6 C           9.9823    0.9836   -1.7076 C.ar    1  UNL1       -0.0007
      7 C          10.5375    0.6681   -3.0513 C.3     1  UNL1        0.1521
      8 O          10.5014    1.2226   -5.8882 O.co2   1  UNL1       -0.2905
      9 S           9.7625    1.6291   -4.4026 S.3     1  UNL1       -0.1028
     10 O           9.9887    3.1948   -4.1449 O.2     1  UNL1       -0.3711
     11 O           8.1942    1.3162   -4.4929 O.2     1  UNL1       -0.3711
@<TRIPOS>BOND
     1     1     2   ar
     2     1     6   ar
     3     2     3   ar
     4     3     4   ar
     5     4     5   ar
     6     5     6   ar
     7     6     7    1
     8     7     9    1
     9     8     9    1
    10     9    10    2
    11     9    11    2
