
##########                                Name:             adenine
##########                DOCK_Rotatable_Bonds:                   0
##########                    Molecular_Weight:             135.128
##########                       Formal_Charge:        -2.98023e-08
##########                            HA_RMSDs:              3.2858
##########                            HA_RMSDh:              2.0459
##########                            HA_RMSDm:              1.9015
##########                          Grid_Score:          -18.256676
##########                     Grid_vdw_energy:          -17.111326
##########                      Grid_es_energy:           -1.145350
##########           Internal_energy_repulsive:            0.000000

@<TRIPOS>MOLECULE
adenine
 15 16 1 0 0
SMALL
GASTEIGER


@<TRIPOS>ATOM
      1 C          17.7904   -6.1554    3.3172 C.ar    1  UNL1        0.0957
      2 N          17.2190   -5.7162    2.1533 N.ar    1  UNL1       -0.3292
      3 H          17.0602   -4.7594    1.8760 H       1  UNL1        0.1682
      4 C          16.8965   -6.8157    1.4129 C.ar    1  UNL1        0.1627
      5 C          17.2847   -7.8968    2.1845 C.ar    1  UNL1        0.1470
      6 N          17.8522   -7.4698    3.3698 N.ar    1  UNL1       -0.2308
      7 C          17.0530   -9.1704    1.6388 C.ar    1  UNL1        0.1471
      8 N          16.4968   -9.2529    0.4076 N.ar    1  UNL1       -0.2188
      9 C          16.1654   -8.1050   -0.2258 C.ar    1  UNL1        0.1205
     10 N          16.3277   -6.8345    0.1993 N.ar    1  UNL1       -0.2162
     11 N          17.3863  -10.3515    2.2905 N.pl3   1  UNL1       -0.3413
     12 H          18.1396   -5.4743    4.0823 H       1  UNL1        0.1027
     13 H          15.7110   -8.2230   -1.2056 H       1  UNL1        0.1048
     14 H          18.0894  -10.2263    3.0102 H       1  UNL1        0.1438
     15 H          17.5061  -11.1194    1.6436 H       1  UNL1        0.1438
@<TRIPOS>BOND
     1     1     2   ar
     2     1     6   ar
     3     1    12    1
     4     2     3    1
     5     2     4   ar
     6     4     5   ar
     7     4    10   ar
     8     5     6   ar
     9     5     7   ar
    10     7     8   ar
    11     7    11    1
    12     8     9   ar
    13     9    10   ar
    14     9    13    1
    15    11    14    1
    16    11    15    1
@<TRIPOS>SUBSTRUCTURE
     1 UNL1        1 TEMP              0 ****  ****    0 ROOT


##########                                Name:       2-aminopurine
##########                DOCK_Rotatable_Bonds:                   0
##########                    Molecular_Weight:             135.128
##########                       Formal_Charge:        -0.000200033
##########                            HA_RMSDs:              3.4416
##########                            HA_RMSDh:              1.3960
##########                            HA_RMSDm:              1.0897
##########                          Grid_Score:          -19.720676
##########                     Grid_vdw_energy:          -18.476992
##########                      Grid_es_energy:           -1.243685
##########           Internal_energy_repulsive:            0.000000

@<TRIPOS>MOLECULE
2-aminopurine
 15 16 1 0 0
SMALL
GASTEIGER


@<TRIPOS>ATOM
      1 C          16.1578   -8.7171    2.5203 C.ar    1  UNL1        0.0601
      2 C          16.8290   -7.5212    2.7300 C.ar    1  UNL1        0.1258
      3 C          16.9169   -6.6842    1.6327 C.ar    1  UNL1        0.1627
      4 N          17.6050   -5.5924    2.0740 N.ar    1  UNL1       -0.3292
      5 H          17.8380   -4.7843    1.5170 H       1  UNL1        0.1682
      6 C          17.9043   -5.8029    3.3933 C.ar    1  UNL1        0.0956
      7 N          17.4510   -6.9633    3.8214 N.ar    1  UNL1       -0.2328
      8 N          16.4326   -6.8932    0.4011 N.ar    1  UNL1       -0.1952
      9 C          15.7866   -8.0675    0.3132 C.ar    1  UNL1        0.2145
     10 N          15.6419   -8.9829    1.2904 N.ar    1  UNL1       -0.2209
     11 N          15.2553   -8.3982   -0.9177 N.pl3   1  UNL1       -0.3274
     12 H          16.0189   -9.4631    3.2911 H       1  UNL1        0.0853
     13 H          18.4504   -5.0794    3.9847 H       1  UNL1        0.1027
     14 H          15.7632   -7.9239   -1.6503 H       1  UNL1        0.1452
     15 H          15.1708   -9.4030   -0.9858 H       1  UNL1        0.1452
@<TRIPOS>BOND
     1     1     2   ar
     2     1    10   ar
     3     1    12    1
     4     2     3   ar
     5     2     7   ar
     6     3     4   ar
     7     3     8   ar
     8     4     5    1
     9     4     6   ar
    10     6     7   ar
    11     6    13    1
    12     8     9   ar
    13     9    10   ar
    14     9    11    1
    15    11    14    1
    16    11    15    1
@<TRIPOS>SUBSTRUCTURE
     1 UNL1        1 TEMP              0 ****  ****    0 ROOT


##########                                Name:2,4,6-triaminopyrimidine
##########                DOCK_Rotatable_Bonds:                   0
##########                    Molecular_Weight:             126.141
##########                       Formal_Charge:              0.9999
##########                            HA_RMSDs:          -1000.0000
##########                            HA_RMSDh:          -1000.0000
##########                            HA_RMSDm:              0.0000
##########                          Grid_Score:          -23.642269
##########                     Grid_vdw_energy:          -16.704075
##########                      Grid_es_energy:           -6.938194
##########           Internal_energy_repulsive:            0.000000

@<TRIPOS>MOLECULE
2,4,6-triaminopyrimidine
 17 17 1 0 0
SMALL
GASTEIGER


@<TRIPOS>ATOM
      1 C          16.7077   -7.7485    2.7517 C.ar    1  UNL1        0.0655
      2 C          16.9023   -7.2750    4.0426 C.ar    1  UNL1        0.2727
      3 N          17.3238   -6.0205    4.2005 N.ar    1  UNL1       -0.1619
      4 H          17.4892   -5.6389    5.1192 H       1  UNL1        0.4578
      5 C          17.5076   -5.2242    3.1517 C.ar    1  UNL1        0.3729
      6 N          17.2886   -5.6037    1.8872 N.ar    1  UNL1       -0.1572
      7 C          16.8932   -6.8691    1.7010 C.ar    1  UNL1        0.1317
      8 N          16.7621   -7.3005    0.3919 N.pl3   1  UNL1       -0.3427
      9 N          17.9239   -3.9256    3.3780 N.pl3   1  UNL1       -0.2882
     10 N          16.7807   -8.1021    5.1459 N.pl3   1  UNL1       -0.3054
     11 H          16.4327   -8.7813    2.5657 H       1  UNL1        0.0733
     12 H          16.9066   -6.5307   -0.2589 H       1  UNL1        0.1437
     13 H          15.9043   -7.8032    0.1867 H       1  UNL1        0.1437
     14 H          18.7537   -3.8237    3.9515 H       1  UNL1        0.1493
     15 H          18.0516   -3.4715    2.4718 H       1  UNL1        0.1493
     16 H          16.0435   -8.8049    5.0888 H       1  UNL1        0.1477
     17 H          16.8772   -7.7326    6.0849 H       1  UNL1        0.1477
@<TRIPOS>BOND
     1     1     2   ar
     2     1     7   ar
     3     1    11    1
     4     2     3   ar
     5     2    10    1
     6     3     4    1
     7     3     5   ar
     8     5     6   ar
     9     5     9    1
    10     6     7   ar
    11     7     8    1
    12     8    12    1
    13     8    13    1
    14     9    14    1
    15     9    15    1
    16    10    16    1
    17    10    17    1
@<TRIPOS>SUBSTRUCTURE
     1 UNL1        1 TEMP              0 ****  ****    0 ROOT


##########                                Name:             guanine
##########                DOCK_Rotatable_Bonds:                   0
##########                    Molecular_Weight:             151.128
##########                       Formal_Charge:        -5.96046e-08
##########                            HA_RMSDs:          -1000.0000
##########                            HA_RMSDh:          -1000.0000
##########                            HA_RMSDm:              0.0000
##########                          Grid_Score:          -21.033846
##########                     Grid_vdw_energy:          -19.566910
##########                      Grid_es_energy:           -1.466936
##########           Internal_energy_repulsive:            0.000000

@<TRIPOS>MOLECULE
guanine
 16 17 1 0 0
SMALL
GASTEIGER


@<TRIPOS>ATOM
      1 C          16.3048   -8.6152    0.4105 C.ar    1  UNL1        0.0963
      2 N          16.2353   -8.8987    1.7490 N.ar    1  UNL1       -0.3389
      3 H          15.9293   -9.7651    2.1722 H       1  UNL1        0.1670
      4 C          16.6610   -7.7834    2.4054 C.ar    1  UNL1        0.1503
      5 C          16.7947   -7.5159    3.7870 C.ar    1  UNL1        0.2783
      6 O          16.5416   -8.3077    4.6868 O.2     1  UNL1       -0.2654
      7 N          17.2521   -6.2406    4.0141 N.ar    1  UNL1       -0.2935
      8 H          17.4191   -5.9916    4.9742 H       1  UNL1        0.1716
      9 C          17.5705   -5.3596    3.0078 C.ar    1  UNL1        0.1950
     10 N          17.4593   -5.6030    1.7347 N.ar    1  UNL1       -0.1947
     11 C          16.9755   -6.8774    1.4333 C.ar    1  UNL1        0.1863
     12 N          16.7489   -7.3943    0.1919 N.ar    1  UNL1       -0.2163
     13 N          18.0277   -4.1454    3.4143 N.pl3   1  UNL1       -0.3289
     14 H          16.0220   -9.3311   -0.3501 H       1  UNL1        0.1027
     15 H          17.5681   -3.7418    4.2197 H       1  UNL1        0.1451
     16 H          18.0703   -3.4939    2.6342 H       1  UNL1        0.1451
@<TRIPOS>BOND
     1     1     2   ar
     2     1    12   ar
     3     1    14    1
     4     2     3    1
     5     2     4   ar
     6     4     5   ar
     7     4    11   ar
     8     5     6    2
     9     5     7   ar
    10     7     8    1
    11     7     9   ar
    12     9    10   ar
    13     9    13    1
    14    10    11   ar
    15    11    12   ar
    16    13    15    1
    17    13    16    1
@<TRIPOS>SUBSTRUCTURE
     1 UNL1        1 TEMP              0 ****  ****    0 ROOT


##########                                Name:   2,6-diaminopurine
##########                DOCK_Rotatable_Bonds:                   0
##########                    Molecular_Weight:             150.143
##########                       Formal_Charge:         2.98023e-08
##########                            HA_RMSDs:          -1000.0000
##########                            HA_RMSDh:          -1000.0000
##########                            HA_RMSDm:              0.0000
##########                          Grid_Score:          -20.789497
##########                     Grid_vdw_energy:          -19.452213
##########                      Grid_es_energy:           -1.337284
##########           Internal_energy_repulsive:            0.000000

@<TRIPOS>MOLECULE
2,6-diaminopurine
 17 18 1 0 0
SMALL
GASTEIGER


@<TRIPOS>ATOM
      1 C          17.8141   -5.7891    3.2613 C.ar    1  UNL1        0.0957
      2 N          17.5274   -5.6002    1.9358 N.ar    1  UNL1       -0.3291
      3 H          17.7602   -4.7977    1.3706 H       1  UNL1        0.1682
      4 C          16.8491   -6.7013    1.5023 C.ar    1  UNL1        0.1646
      5 C          16.7617   -7.5289    2.6047 C.ar    1  UNL1        0.1471
      6 N          17.3632   -6.9454    3.7020 N.ar    1  UNL1       -0.2308
      7 C          16.0972   -8.7474    2.4083 C.ar    1  UNL1        0.1490
      8 N          15.5787   -9.0077    1.1850 N.ar    1  UNL1       -0.1978
      9 C          15.7280   -8.1024    0.1996 C.ar    1  UNL1        0.2162
     10 N          16.3702   -6.9251    0.2727 N.ar    1  UNL1       -0.1951
     11 N          15.1986   -8.4453   -1.0306 N.pl3   1  UNL1       -0.3274
     12 N          15.9266   -9.6940    3.4133 N.pl3   1  UNL1       -0.3413
     13 H          18.3491   -5.0532    3.8474 H       1  UNL1        0.1027
     14 H          15.1237   -9.4520   -1.0886 H       1  UNL1        0.1452
     15 H          15.7112   -7.9780   -1.7648 H       1  UNL1        0.1452
     16 H          16.0122   -9.3023    4.3449 H       1  UNL1        0.1438
     17 H          15.1314  -10.2924    3.2307 H       1  UNL1        0.1438
@<TRIPOS>BOND
     1     1     2   ar
     2     1     6   ar
     3     1    13    1
     4     2     3    1
     5     2     4   ar
     6     4     5   ar
     7     4    10   ar
     8     5     6   ar
     9     5     7   ar
    10     7     8   ar
    11     7    12    1
    12     8     9   ar
    13     9    10   ar
    14     9    11    1
    15    11    14    1
    16    11    15    1
    17    12    16    1
    18    12    17    1
@<TRIPOS>SUBSTRUCTURE
     1 UNL1        1 TEMP              0 ****  ****    0 ROOT


##########                                Name:              purine
##########                DOCK_Rotatable_Bonds:                   0
##########                    Molecular_Weight:             120.114
##########                       Formal_Charge:        -0.000100009
##########                            HA_RMSDs:          -1000.0000
##########                            HA_RMSDh:          -1000.0000
##########                            HA_RMSDm:              0.0000
##########                          Grid_Score:          -17.807983
##########                     Grid_vdw_energy:          -16.684919
##########                      Grid_es_energy:           -1.123065
##########           Internal_energy_repulsive:            0.000000

@<TRIPOS>MOLECULE
purine
 13 14 1 0 0
SMALL
GASTEIGER


@<TRIPOS>ATOM
      1 C          15.8350   -9.1528    1.6633 C.ar    1  UNL1        0.0583
      2 C          16.4865   -7.9738    2.0077 C.ar    1  UNL1        0.1257
      3 C          16.5165   -6.9890    1.0341 C.ar    1  UNL1        0.1608
      4 N          17.1973   -5.9518    1.6011 N.ar    1  UNL1       -0.3292
      5 H          17.3966   -5.0705    1.1530 H       1  UNL1        0.1682
      6 C          17.5479   -6.3344    2.8678 C.ar    1  UNL1        0.0956
      7 N          17.1331   -7.5531    3.1464 N.ar    1  UNL1       -0.2328
      8 N          15.9934   -7.0346   -0.2004 N.ar    1  UNL1       -0.2163
      9 C          15.3899   -8.2221   -0.4181 C.ar    1  UNL1        0.1183
     10 N          15.2799   -9.2717    0.4281 N.ar    1  UNL1       -0.2414
     11 H          15.7436   -9.9957    2.3354 H       1  UNL1        0.0853
     12 H          18.1009   -5.6861    3.5350 H       1  UNL1        0.1027
     13 H          14.9346   -8.3528   -1.3958 H       1  UNL1        0.1047
@<TRIPOS>BOND
     1     1     2   ar
     2     1    10   ar
     3     1    11    1
     4     2     3   ar
     5     2     7   ar
     6     3     4   ar
     7     3     8   ar
     8     4     5    1
     9     4     6   ar
    10     6     7   ar
    11     6    12    1
    12     8     9   ar
    13     9    10   ar
    14     9    13    1
@<TRIPOS>SUBSTRUCTURE
     1 UNL1        1 TEMP              0 ****  ****    0 ROOT


##########                                Name:     8-chloroadenine
##########                DOCK_Rotatable_Bonds:                   0
##########                    Molecular_Weight:             169.573
##########                       Formal_Charge:                   0
##########                            HA_RMSDs:              3.2086
##########                            HA_RMSDh:          -1000.0000
##########                            HA_RMSDm:             95.3707
##########                          Grid_Score:          -20.559662
##########                     Grid_vdw_energy:          -19.275843
##########                      Grid_es_energy:           -1.283819
##########           Internal_energy_repulsive:            0.000000

@<TRIPOS>MOLECULE
8-chloroadenine
 15 16 1 0 0
SMALL
GASTEIGER


@<TRIPOS>ATOM
      1 C          17.6119   -5.5081    2.5822 C.ar    1  UNL1        0.0971
      2 N          17.3612   -6.0782    3.8036 N.ar    1  UNL1       -0.3328
      3 H          17.7674   -5.6978    4.6485 H       1  UNL1        0.1680
      4 C          16.7931   -7.3277    3.9132 C.ar    1  UNL1        0.1244
      5 C          16.4526   -7.9288    2.7613 C.ar    1  UNL1        0.1486
      6 N          15.8568   -9.1229    2.4693 N.ar    1  UNL1       -0.2108
      7 C          15.8025   -9.0823    1.1643 C.ar    1  UNL1        0.2254
      8 N          16.3005   -7.9695    0.5064 N.ar    1  UNL1       -0.1960
      9 C          16.7117   -7.2394    1.4942 C.ar    1  UNL1        0.1860
     10 N          17.3093   -6.0151    1.4292 N.ar    1  UNL1       -0.2163
     11 CL         15.1355  -10.3499    0.2562 Cl      1  UNL1       -0.0410
     12 N          16.5925   -7.9088    5.1463 N.pl3   1  UNL1       -0.3428
     13 H          18.1149   -4.5294    2.6529 H       1  UNL1        0.1028
     14 H          16.1672   -7.2656    5.8077 H       1  UNL1        0.1437
     15 H          16.0279   -8.7575    5.0572 H       1  UNL1        0.1437
@<TRIPOS>BOND
     1     1     2   ar
     2     1    10   ar
     3     1    13    1
     4     2     3    1
     5     2     4   ar
     6     4     5   ar
     7     4    12    1
     8     5     6   ar
     9     5     9   ar
    10     6     7   ar
    11     7     8   ar
    12     7    11    1
    13     8     9   ar
    14     9    10   ar
    15    12    14    1
    16    12    15    1
@<TRIPOS>SUBSTRUCTURE
     1 UNL1        1 TEMP              0 ****  ****    0 ROOT


##########                                Name:     1-methyladenine
##########                DOCK_Rotatable_Bonds:                   0
##########                    Molecular_Weight:             149.155
##########                       Formal_Charge:        -0.000200033
##########                            HA_RMSDs:          -1000.0000
##########                            HA_RMSDh:          -1000.0000
##########                            HA_RMSDm:              0.0000
##########                          Grid_Score:          -20.610847
##########                     Grid_vdw_energy:          -19.621899
##########                      Grid_es_energy:           -0.988948
##########           Internal_energy_repulsive:            0.000000

@<TRIPOS>MOLECULE
1-methyladenine
 18 19 1 0 0
SMALL
GASTEIGER


@<TRIPOS>ATOM
      1 C          17.7195   -6.6782    4.1832 C.3     1  UNL1        0.0144
      2 N          17.0415   -7.0125    2.9355 N.ar    1  UNL1       -0.3217
      3 C          17.1911   -6.1828    1.8312 C.ar    1  UNL1        0.0994
      4 N          16.7698   -6.3889    0.6237 N.ar    1  UNL1       -0.2162
      5 C          16.1266   -7.5740    0.4518 C.ar    1  UNL1        0.1845
      6 N          15.5960   -8.0363   -0.6370 N.ar    1  UNL1       -0.2144
      7 C          15.0925   -9.2645   -0.2262 C.ar    1  UNL1        0.1193
      8 N          15.2584   -9.6061    1.0246 N.ar    1  UNL1       -0.2289
      9 C          15.9408   -8.5341    1.5342 C.ar    1  UNL1        0.1473
     10 C          16.4001   -8.2487    2.7656 C.ar    1  UNL1        0.1268
     11 N          16.2258   -9.1523    3.8060 N.pl3   1  UNL1       -0.3427
     12 H          18.0519   -5.6345    4.1996 H       1  UNL1        0.0456
     13 H          18.6007   -7.3143    4.3189 H       1  UNL1        0.0456
     14 H          17.0513   -6.8119    5.0407 H       1  UNL1        0.0456
     15 H          17.7371   -5.2498    2.0516 H       1  UNL1        0.1030
     16 H          14.5706   -9.9150   -0.9463 H       1  UNL1        0.1048
     17 H          15.6262   -9.9219    3.4966 H       1  UNL1        0.1437
     18 H          15.8188   -8.6997    4.6183 H       1  UNL1        0.1437
@<TRIPOS>BOND
     1     1     2    1
     2     1    12    1
     3     1    13    1
     4     1    14    1
     5     2     3   ar
     6     2    10   ar
     7     3     4   ar
     8     3    15    1
     9     4     5   ar
    10     5     6   ar
    11     5     9   ar
    12     6     7   ar
    13     7     8   ar
    14     7    16    1
    15     8     9   ar
    16     9    10   ar
    17    10    11    1
    18    11    17    1
    19    11    18    1
@<TRIPOS>SUBSTRUCTURE
     1 UNL1        1 TEMP              0 ****  ****    0 ROOT


##########                                Name:     3-methyladenine
##########                DOCK_Rotatable_Bonds:                   0
##########                    Molecular_Weight:             149.155
##########                       Formal_Charge:          0.00030002
##########                            HA_RMSDs:          -1000.0000
##########                            HA_RMSDh:          -1000.0000
##########                            HA_RMSDm:              0.0000
##########                          Grid_Score:          -19.934479
##########                     Grid_vdw_energy:          -19.107365
##########                      Grid_es_energy:           -0.827114
##########           Internal_energy_repulsive:            0.000000

@<TRIPOS>MOLECULE
3-methyladenine
 18 19 1 0 0
SMALL
GASTEIGER


@<TRIPOS>ATOM
      1 C          17.7231   -6.8578    4.2091 C.3     1  UNL1        0.0146
      2 N          17.0972   -7.1051    2.9281 N.ar    1  UNL1       -0.3180
      3 C          17.1908   -6.2200    1.8773 C.ar    1  UNL1        0.0993
      4 N          16.6496   -6.3650    0.7031 N.ar    1  UNL1       -0.2206
      5 C          15.8848   -7.5067    0.4829 C.ar    1  UNL1        0.1471
      6 C          15.7321   -8.4601    1.4274 C.ar    1  UNL1        0.1473
      7 N          15.0807   -9.6614    1.4589 N.ar    1  UNL1       -0.2289
      8 C          15.3200  -10.0803    2.6691 C.ar    1  UNL1        0.1192
      9 N          16.0998   -9.2690    3.4863 N.ar    1  UNL1       -0.2160
     10 C          16.3713   -8.2480    2.7290 C.ar    1  UNL1        0.1651
     11 N          15.2905   -7.6660   -0.7559 N.pl3   1  UNL1       -0.3413
     12 H          18.2931   -5.9227    4.2127 H       1  UNL1        0.0457
     13 H          18.4152   -7.6686    4.4604 H       1  UNL1        0.0457
     14 H          16.9658   -6.7896    4.9971 H       1  UNL1        0.0457
     15 H          17.7947   -5.3227    2.0918 H       1  UNL1        0.1030
     16 H          14.9325  -11.0390    3.0493 H       1  UNL1        0.1048
     17 H          15.8582   -7.2229   -1.4702 H       1  UNL1        0.1438
     18 H          15.0742   -8.6428   -0.9421 H       1  UNL1        0.1438
@<TRIPOS>BOND
     1     1     2    1
     2     1    12    1
     3     1    13    1
     4     1    14    1
     5     2     3   ar
     6     2    10   ar
     7     3     4   ar
     8     3    15    1
     9     4     5   ar
    10     5     6   ar
    11     5    11    1
    12     6     7   ar
    13     6    10   ar
    14     7     8   ar
    15     8     9   ar
    16     8    16    1
    17     9    10   ar
    18    11    17    1
    19    11    18    1
@<TRIPOS>SUBSTRUCTURE
     1 UNL1        1 TEMP              0 ****  ****    0 ROOT


##########                                Name:     2-chloroadenine
##########                DOCK_Rotatable_Bonds:                   0
##########                    Molecular_Weight:             169.573
##########                       Formal_Charge:        -2.98023e-08
##########                            HA_RMSDs:              3.9173
##########                            HA_RMSDh:          -1000.0000
##########                            HA_RMSDm:             95.3647
##########                          Grid_Score:          -20.289766
##########                     Grid_vdw_energy:          -19.144285
##########                      Grid_es_energy:           -1.145480
##########           Internal_energy_repulsive:            0.000000

@<TRIPOS>MOLECULE
2-chloroadenine
 15 16 1 0 0
SMALL
GASTEIGER


@<TRIPOS>ATOM
      1 C          17.9001   -5.6223    3.5679 C.ar    1  UNL1        0.0957
      2 N          17.5814   -5.4604    2.2462 N.ar    1  UNL1       -0.3291
      3 H          17.7377   -4.6406    1.6788 H       1  UNL1        0.1682
      4 C          17.0073   -6.6222    1.8184 C.ar    1  UNL1        0.1642
      5 C          16.9936   -7.4498    2.9279 C.ar    1  UNL1        0.1471
      6 N          17.5636   -6.8153    4.0126 N.ar    1  UNL1       -0.2308
      7 C          16.4379   -8.7294    2.7510 C.ar    1  UNL1        0.1487
      8 N          15.9812   -9.0730    1.5267 N.ar    1  UNL1       -0.2006
      9 C          16.0608   -8.1510    0.5450 C.ar    1  UNL1        0.2264
     10 N          16.5568   -6.8969    0.5869 N.ar    1  UNL1       -0.1979
     11 CL         15.4600   -8.6483   -0.9792 Cl      1  UNL1       -0.0409
     12 N          16.3500   -9.6650    3.7728 N.pl3   1  UNL1       -0.3413
     13 H          18.3728   -4.8403    4.1483 H       1  UNL1        0.1027
     14 H          16.9847   -9.4920    4.5446 H       1  UNL1        0.1438
     15 H          16.2697  -10.6135    3.4303 H       1  UNL1        0.1438
@<TRIPOS>BOND
     1     1     2   ar
     2     1     6   ar
     3     1    13    1
     4     2     3    1
     5     2     4   ar
     6     4     5   ar
     7     4    10   ar
     8     5     6   ar
     9     5     7   ar
    10     7     8   ar
    11     7    12    1
    12     8     9   ar
    13     9    10   ar
    14     9    11    1
    15    12    14    1
    16    12    15    1
@<TRIPOS>SUBSTRUCTURE
     1 UNL1        1 TEMP              0 ****  ****    0 ROOT


##########                                Name:        8-azaadenine
##########                DOCK_Rotatable_Bonds:                   0
##########                    Molecular_Weight:             135.108
##########                       Formal_Charge:                  -1
##########                            HA_RMSDs:          -1000.0000
##########                            HA_RMSDh:          -1000.0000
##########                            HA_RMSDm:              0.0000
##########                          Grid_Score:          -22.187279
##########                     Grid_vdw_energy:          -17.694954
##########                      Grid_es_energy:           -4.492324
##########           Internal_energy_repulsive:            0.000000

@<TRIPOS>MOLECULE
8-azaadenine
 13 14 1 0 0
SMALL
GASTEIGER


@<TRIPOS>ATOM
      1 C          15.9265  -11.0235    7.6680 C.ar    1  UNL1        0.1205
      2 N          15.7135  -12.3630    7.7058 N.ar    1  UNL1       -0.2189
      3 C          14.4258  -12.8071    7.7281 C.ar    1  UNL1        0.1455
      4 C          13.3744  -11.8685    7.7530 C.ar    1  UNL1        0.1267
      5 C          13.7333  -10.5308    7.7239 C.ar    1  UNL1        0.1642
      6 N          15.0233  -10.0316    7.6734 N.ar    1  UNL1       -0.2158
      7 N          12.6386   -9.7586    7.7782 N.ar    1  UNL1       -0.3340
      8 N          11.6000  -10.6493    7.8482 N.ar    1  UNL1       -0.4927
      9 N          12.0222  -11.9505    7.8365 N.ar    1  UNL1       -0.3465
     10 N          14.2148  -14.1929    7.7813 N.pl3   1  UNL1       -0.3414
     11 H          16.9660  -10.7139    7.6331 H       1  UNL1        0.1048
     12 H          14.9688  -14.6383    8.2836 H       1  UNL1        0.1438
     13 H          13.2672  -14.3670    8.1140 H       1  UNL1        0.1438
@<TRIPOS>BOND
     1     1     2   ar
     2     1     6   ar
     3     1    11    1
     4     2     3   ar
     5     3     4   ar
     6     3    10    1
     7     4     5   ar
     8     4     9   ar
     9     5     6   ar
    10     5     7   ar
    11     7     8   ar
    12     8     9   ar
    13    10    12    1
    14    10    13    1
@<TRIPOS>SUBSTRUCTURE
     1 UNL1        1 TEMP              0 ****  ****    0 ROOT


##########                                Name:       1-deazapurine
##########                DOCK_Rotatable_Bonds:                   0
##########                    Molecular_Weight:             119.126
##########                       Formal_Charge:        -9.99868e-05
##########                            HA_RMSDs:          -1000.0000
##########                            HA_RMSDh:          -1000.0000
##########                            HA_RMSDm:              0.0000
##########                          Grid_Score:          -17.864885
##########                     Grid_vdw_energy:          -16.559799
##########                      Grid_es_energy:           -1.305086
##########           Internal_energy_repulsive:            0.000000

@<TRIPOS>MOLECULE
1-deazapurine
 14 15 1 0 0
SMALL
GASTEIGER


@<TRIPOS>ATOM
      1 C          15.4941   -8.9883    0.8555 C.ar    1  UNL1       -0.0414
      2 C          15.9351   -8.8495    2.1750 C.ar    1  UNL1       -0.0313
      3 C          16.6308   -7.6787    2.4927 C.ar    1  UNL1        0.1077
      4 C          16.8276   -6.7516    1.4776 C.ar    1  UNL1        0.1576
      5 N          17.5196   -5.7328    2.0628 N.ar    1  UNL1       -0.3293
      6 H          17.8234   -4.8936    1.5940 H       1  UNL1        0.1682
      7 C          17.7135   -6.0668    3.3754 C.ar    1  UNL1        0.0956
      8 N          17.1881   -7.2383    3.6687 N.ar    1  UNL1       -0.2343
      9 N          16.4315   -6.8232    0.1944 N.ar    1  UNL1       -0.2359
     10 C          15.7623   -7.9751   -0.0636 C.ar    1  UNL1        0.0300
     11 H          14.9487   -9.8747    0.5491 H       1  UNL1        0.0633
     12 H          15.7514   -9.6086    2.9253 H       1  UNL1        0.0640
     13 H          18.2411   -5.4204    4.0641 H       1  UNL1        0.1027
     14 H          15.4229   -8.0744   -1.0928 H       1  UNL1        0.0830
@<TRIPOS>BOND
     1     1     2   ar
     2     1    10   ar
     3     1    11    1
     4     2     3   ar
     5     2    12    1
     6     3     4   ar
     7     3     8   ar
     8     4     5   ar
     9     4     9   ar
    10     5     6    1
    11     5     7   ar
    12     7     8   ar
    13     7    13    1
    14     9    10   ar
    15    10    14    1
@<TRIPOS>SUBSTRUCTURE
     1 UNL1        1 TEMP              0 ****  ****    0 ROOT


##########                                Name:       6-cyanopurine
##########                DOCK_Rotatable_Bonds:                   0
##########                    Molecular_Weight:             145.124
##########                       Formal_Charge:         7.45058e-09
##########                            HA_RMSDs:          -1000.0000
##########                            HA_RMSDh:          -1000.0000
##########                            HA_RMSDm:              0.0000
##########                          Grid_Score:          -19.633999
##########                     Grid_vdw_energy:          -18.229300
##########                      Grid_es_energy:           -1.404699
##########           Internal_energy_repulsive:            0.000000

@<TRIPOS>MOLECULE
6-cyanopurine
 14 15 1 0 0
SMALL
GASTEIGER


@<TRIPOS>ATOM
      1 C          17.8068   -5.9772    3.3101 C.ar    1  UNL1        0.0957
      2 N          17.5855   -5.6777    1.9935 N.ar    1  UNL1       -0.3292
      3 H          17.8984   -4.8582    1.4943 H       1  UNL1        0.1682
      4 C          16.8536   -6.6987    1.4600 C.ar    1  UNL1        0.1621
      5 C          16.6592   -7.5927    2.5008 C.ar    1  UNL1        0.1434
      6 N          17.2613   -7.1266    3.6495 N.ar    1  UNL1       -0.2314
      7 C          15.9257   -8.7269    2.1761 C.ar    1  UNL1        0.1706
      8 N          15.4522   -8.9041    0.9127 N.ar    1  UNL1       -0.2228
      9 C          15.7249   -7.9425    0.0081 C.ar    1  UNL1        0.1198
     10 N          16.4206   -6.8034    0.1953 N.ar    1  UNL1       -0.2162
     11 C          15.6601   -9.7198    3.1640 C.1     1  UNL1        0.1215
     12 N          15.4335  -10.5401    3.9563 N.1     1  UNL1       -0.1892
     13 H          18.3683   -5.3241    3.9665 H       1  UNL1        0.1027
     14 H          15.3365   -8.1058   -0.9939 H       1  UNL1        0.1048
@<TRIPOS>BOND
     1     1     2   ar
     2     1     6   ar
     3     1    13    1
     4     2     3    1
     5     2     4   ar
     6     4     5   ar
     7     4    10   ar
     8     5     6   ar
     9     5     7   ar
    10     7     8   ar
    11     7    11    1
    12     8     9   ar
    13     9    10   ar
    14     9    14    1
    15    11    12    3
@<TRIPOS>SUBSTRUCTURE
     1 UNL1        1 TEMP              0 ****  ****    0 ROOT


##########                                Name:    N6-methyladenine
##########                DOCK_Rotatable_Bonds:                   1
##########                    Molecular_Weight:             149.155
##########                       Formal_Charge:         0.000200041
##########                            HA_RMSDs:          -1000.0000
##########                            HA_RMSDh:          -1000.0000
##########                            HA_RMSDm:              0.0000
##########                          Grid_Score:          -20.440601
##########                     Grid_vdw_energy:          -19.536453
##########                      Grid_es_energy:           -0.904147
##########           Internal_energy_repulsive:            0.923324

@<TRIPOS>MOLECULE
N6-methyladenine
 18 19 1 0 0
SMALL
GASTEIGER


@<TRIPOS>ATOM
      1 C          14.7761  -15.0817    7.9902 C.3     1  UNL1       -0.0010
      2 N          13.7787  -14.0704    8.2608 N.pl3   1  UNL1       -0.3303
      3 C          14.0929  -12.7875    7.7998 C.ar    1  UNL1        0.1495
      4 C          13.2555  -11.6854    8.0647 C.ar    1  UNL1        0.1472
      5 C          13.6669  -10.4559    7.5816 C.ar    1  UNL1        0.1627
      6 N          12.6978   -9.5780    7.9707 N.ar    1  UNL1       -0.3292
      7 H          12.6985   -8.5875    7.7802 H       1  UNL1        0.1682
      8 C          11.7465  -10.2879    8.6521 C.ar    1  UNL1        0.0957
      9 N          12.0459  -11.5680    8.7249 N.ar    1  UNL1       -0.2308
     10 N          14.7750  -10.1754    6.8827 N.ar    1  UNL1       -0.2162
     11 C          15.5000  -11.2948    6.6825 C.ar    1  UNL1        0.1205
     12 N          15.2278  -12.5561    7.0851 N.ar    1  UNL1       -0.2186
     13 H          14.4109  -16.0507    8.3452 H       1  UNL1        0.0426
     14 H          15.7139  -14.8745    8.5165 H       1  UNL1        0.0426
     15 H          14.9739  -15.1725    6.9166 H       1  UNL1        0.0426
     16 H          12.8247  -14.3070    7.9946 H       1  UNL1        0.1472
     17 H          10.8641   -9.8195    9.0686 H       1  UNL1        0.1027
     18 H          16.4232  -11.1690    6.1239 H       1  UNL1        0.1048
@<TRIPOS>BOND
     1     1     2    1
     2     1    13    1
     3     1    14    1
     4     1    15    1
     5     2     3    1
     6     2    16    1
     7     3     4   ar
     8     3    12   ar
     9     4     5   ar
    10     4     9   ar
    11     5     6   ar
    12     5    10   ar
    13     6     7    1
    14     6     8   ar
    15     8     9   ar
    16     8    17    1
    17    10    11   ar
    18    11    12   ar
    19    11    18    1
@<TRIPOS>SUBSTRUCTURE
     1 UNL1        1 TEMP              0 ****  ****    0 ROOT


##########                                Name:    6-mercaptopurine
##########                DOCK_Rotatable_Bonds:                   0
##########                    Molecular_Weight:              152.18
##########                       Formal_Charge:        -0.000100024
##########                            HA_RMSDs:          -1000.0000
##########                            HA_RMSDh:          -1000.0000
##########                            HA_RMSDm:              0.0000
##########                          Grid_Score:          -19.198610
##########                     Grid_vdw_energy:          -17.941603
##########                      Grid_es_energy:           -1.257008
##########           Internal_energy_repulsive:            0.000000

@<TRIPOS>MOLECULE
6-mercaptopurine
 14 15 1 0 0
SMALL
GASTEIGER


@<TRIPOS>ATOM
      1 C          17.5766   -6.2226    3.4976 C.ar    1  UNL1        0.0957
      2 N          17.5124   -5.8762    2.1722 N.ar    1  UNL1       -0.3292
      3 H          17.9069   -5.0551    1.7382 H       1  UNL1        0.1682
      4 C          16.8095   -6.8547    1.5370 C.ar    1  UNL1        0.1618
      5 C          16.4772   -7.7593    2.5226 C.ar    1  UNL1        0.1382
      6 N          16.9580   -7.3605    3.7434 N.ar    1  UNL1       -0.2317
      7 C          15.7175   -8.9129    2.1157 C.ar    1  UNL1        0.1146
      8 S          15.2455  -10.0842    3.1850 S.2     1  UNL1       -0.0304
      9 N          15.4269   -8.9422    0.7621 N.ar    1  UNL1       -0.3384
     10 H          14.8952   -9.7305    0.4214 H       1  UNL1        0.1673
     11 C          15.8354   -7.9459   -0.1129 C.ar    1  UNL1        0.0965
     12 N          16.5213   -6.8905    0.2146 N.ar    1  UNL1       -0.2182
     13 H          18.0849   -5.6087    4.2294 H       1  UNL1        0.1027
     14 H          15.5210   -8.1232   -1.1539 H       1  UNL1        0.1028
@<TRIPOS>BOND
     1     1     2   ar
     2     1     6   ar
     3     1    13    1
     4     2     3    1
     5     2     4   ar
     6     4     5   ar
     7     4    12   ar
     8     5     6   ar
     9     5     7   ar
    10     7     8    2
    11     7     9   ar
    12     9    10    1
    13     9    11   ar
    14    11    12   ar
    15    11    14    1
@<TRIPOS>SUBSTRUCTURE
     1 UNL1        1 TEMP              0 ****  ****    0 ROOT


##########                                Name:        hypoxanthine
##########                DOCK_Rotatable_Bonds:                   0
##########                    Molecular_Weight:             136.113
##########                       Formal_Charge:        -9.99942e-05
##########                            HA_RMSDs:          -1000.0000
##########                            HA_RMSDh:          -1000.0000
##########                            HA_RMSDm:              0.0000
##########                          Grid_Score:          -18.551771
##########                     Grid_vdw_energy:          -17.338255
##########                      Grid_es_energy:           -1.213516
##########           Internal_energy_repulsive:            0.000000

@<TRIPOS>MOLECULE
hypoxanthine
 14 15 1 0 0
SMALL
GASTEIGER


@<TRIPOS>ATOM
      1 C          15.9376   -8.6392    0.5744 C.ar    1  UNL1        0.0963
      2 N          15.9555   -8.8535    1.9274 N.ar    1  UNL1       -0.3389
      3 H          15.6222   -9.6735    2.4172 H       1  UNL1        0.1670
      4 C          16.5117   -7.7440    2.4904 C.ar    1  UNL1        0.1501
      5 C          16.7731   -7.4269    3.8448 C.ar    1  UNL1        0.2770
      6 O          16.5239   -8.1503    4.8009 O.2     1  UNL1       -0.2655
      7 N          17.3511   -6.1881    3.9723 N.ar    1  UNL1       -0.3116
      8 H          17.5696   -5.8867    4.9098 H       1  UNL1        0.1698
      9 C          17.6263   -5.3838    2.8872 C.ar    1  UNL1        0.0985
     10 N          17.3947   -5.6563    1.6428 N.ar    1  UNL1       -0.2163
     11 C          16.8051   -6.9080    1.4488 C.ar    1  UNL1        0.1844
     12 N          16.4474   -7.4663    0.2584 N.ar    1  UNL1       -0.2164
     13 H          15.5446   -9.3667   -0.1238 H       1  UNL1        0.1027
     14 H          18.0897   -4.4248    3.1702 H       1  UNL1        0.1028
@<TRIPOS>BOND
     1     1     2   ar
     2     1    12   ar
     3     1    13    1
     4     2     3    1
     5     2     4   ar
     6     4     5   ar
     7     4    11   ar
     8     5     6    2
     9     5     7   ar
    10     7     8    1
    11     7     9   ar
    12     9    10   ar
    13     9    14    1
    14    10    11   ar
    15    11    12   ar
@<TRIPOS>SUBSTRUCTURE
     1 UNL1        1 TEMP              0 ****  ****    0 ROOT


##########                                Name:            xanthine
##########                DOCK_Rotatable_Bonds:                   0
##########                    Molecular_Weight:             152.113
##########                       Formal_Charge:         0.000100024
##########                            HA_RMSDs:              3.1273
##########                            HA_RMSDh:          -1000.0000
##########                            HA_RMSDm:            134.8453
##########                          Grid_Score:          -20.945919
##########                     Grid_vdw_energy:          -19.616243
##########                      Grid_es_energy:           -1.329675
##########           Internal_energy_repulsive:            0.000000

@<TRIPOS>MOLECULE
xanthine
 15 16 1 0 0
SMALL
GASTEIGER


@<TRIPOS>ATOM
      1 C          16.4537   -8.6540    0.4533 C.ar    1  UNL1        0.0963
      2 N          16.4271   -8.9530    1.7944 N.ar    1  UNL1       -0.3389
      3 H          16.2309   -9.8532    2.2135 H       1  UNL1        0.1670
      4 C          16.7178   -7.7962    2.4536 C.ar    1  UNL1        0.1485
      5 C          16.9027   -6.8671    1.4751 C.ar    1  UNL1        0.1653
      6 N          16.7424   -7.3843    0.2348 N.ar    1  UNL1       -0.2181
      7 N          17.2125   -5.5797    1.7871 N.ar    1  UNL1       -0.2907
      8 H          17.3447   -4.9098    1.0439 H       1  UNL1        0.1719
      9 C          17.3440   -5.1963    3.0985 C.ar    1  UNL1        0.3283
     10 O          17.6229   -4.0423    3.4141 O.2     1  UNL1       -0.2466
     11 N          17.1482   -6.1695    4.0607 N.ar    1  UNL1       -0.2733
     12 H          17.2468   -5.8783    5.0203 H       1  UNL1        0.1735
     13 C          16.8323   -7.4952    3.8367 C.ar    1  UNL1        0.2796
     14 O          16.6723   -8.3065    4.7400 O.2     1  UNL1       -0.2654
     15 H          16.2558   -9.3987   -0.3072 H       1  UNL1        0.1027
@<TRIPOS>BOND
     1     1     2   ar
     2     1     6   ar
     3     1    15    1
     4     2     3    1
     5     2     4   ar
     6     4     5   ar
     7     4    13   ar
     8     5     6   ar
     9     5     7   ar
    10     7     8    1
    11     7     9   ar
    12     9    10    2
    13     9    11   ar
    14    11    12    1
    15    11    13   ar
    16    13    14    2
@<TRIPOS>SUBSTRUCTURE
     1 UNL1        1 TEMP              0 ****  ****    0 ROOT


##########                                Name:           P20855218
##########                DOCK_Rotatable_Bonds:                   3
##########                    Molecular_Weight:             134.132
##########                       Formal_Charge:        -0.000100002
##########                            HA_RMSDs:          -1000.0000
##########                            HA_RMSDh:          -1000.0000
##########                            HA_RMSDm:              0.0000
##########                          Grid_Score:          -18.236343
##########                     Grid_vdw_energy:          -16.758284
##########                      Grid_es_energy:           -1.478059
##########           Internal_energy_repulsive:            0.280925

@<TRIPOS>MOLECULE
P20855218
 19 19 1 0 0
SMALL
GASTEIGER


@<TRIPOS>ATOM
      1 C          14.7783   -8.9905    7.5398 C.3     1  UNL1       -0.0361
      2 C          13.6175   -9.7938    6.9697 C.3     1  UNL1        0.0874
      3 H          12.9532   -9.1324    6.4033 H       1  UNL1        0.0621
      4 C          12.8527  -10.5721    8.0435 C.3     1  UNL1        0.1116
      5 H          12.8377  -10.0959    9.0279 H       1  UNL1        0.0647
      6 C          13.5692  -11.9069    8.0284 C.3     1  UNL1        0.1338
      7 H          14.5083  -11.8582    8.5915 H       1  UNL1        0.0671
      8 C          13.8504  -12.0728    6.5313 C.3     1  UNL1        0.1853
      9 H          12.9758  -12.4540    5.9923 H       1  UNL1        0.0935
     10 O          14.1626  -10.7610    6.0481 O.3     1  UNL1       -0.3432
     11 O          14.9272  -12.9655    6.2973 O.3     1  UNL1       -0.3649
     12 O          12.7818  -12.9628    8.5682 O.3     1  UNL1       -0.3841
     13 O          11.4870  -10.8026    7.6553 O.3     1  UNL1       -0.3865
     14 H          15.5040   -9.6370    8.0447 H       1  UNL1        0.0255
     15 H          14.4254   -8.2365    8.2498 H       1  UNL1        0.0255
     16 H          15.3203   -8.4841    6.7339 H       1  UNL1        0.0255
     17 H          15.7161  -12.5664    6.7022 H       1  UNL1        0.2126
     18 H          13.4076  -13.7077    8.6916 H       1  UNL1        0.2101
     19 H          11.5007  -11.3649    6.8592 H       1  UNL1        0.2100
@<TRIPOS>BOND
     1     1    14    1
     2     1    15    1
     3     1    16    1
     4     2    10    1
     5     2     3    1
     6     2     1    1
     7     4     2    1
     8     4     5    1
     9     4    13    1
    10     6     4    1
    11     6    12    1
    12     6     7    1
    13     8     6    1
    14     8     9    1
    15     8    10    1
    16     8    11    1
    17    11    17    1
    18    12    18    1
    19    13    19    1
@<TRIPOS>SUBSTRUCTURE
     1 UNL1        1 TEMP              0 ****  ****    0 ROOT


##########                                Name:N6,N6-dimethyladenine
##########                DOCK_Rotatable_Bonds:                   1
##########                    Molecular_Weight:             163.182
##########                       Formal_Charge:        -0.000199892
##########                            HA_RMSDs:          -1000.0000
##########                            HA_RMSDh:          -1000.0000
##########                            HA_RMSDm:              0.0000
##########                          Grid_Score:          -21.947636
##########                     Grid_vdw_energy:          -21.922611
##########                      Grid_es_energy:           -0.025025
##########           Internal_energy_repulsive:            5.442725

@<TRIPOS>MOLECULE
N6,N6-dimethyladenine
 21 22 1 0 0
SMALL
GASTEIGER


@<TRIPOS>ATOM
      1 C          14.9880   -9.1904    6.0087 C.3     1  UNL1        0.0017
      2 N          15.0605  -10.6344    5.8372 N.pl3   1  UNL1       -0.3195
      3 C          15.0809  -11.1357    4.4701 C.3     1  UNL1        0.0017
      4 C          14.3203  -11.3751    6.7727 C.ar    1  UNL1        0.1518
      5 C          13.2278  -10.8830    7.5377 C.ar    1  UNL1        0.1474
      6 C          12.6021  -11.7771    8.3934 C.ar    1  UNL1        0.1627
      7 N          11.6039  -11.0700    8.9972 N.ar    1  UNL1       -0.3292
      8 H          10.9583  -11.4418    9.6768 H       1  UNL1        0.1682
      9 C          11.6481   -9.7944    8.5119 C.ar    1  UNL1        0.0957
     10 N          12.6155   -9.6406    7.6344 N.ar    1  UNL1       -0.2308
     11 N          12.8916  -13.0672    8.6029 N.ar    1  UNL1       -0.2162
     12 C          13.9311  -13.4428    7.8387 C.ar    1  UNL1        0.1205
     13 N          14.6395  -12.6954    6.9663 N.ar    1  UNL1       -0.2185
     14 H          15.6352   -8.6849    5.2830 H       1  UNL1        0.0428
     15 H          15.3409   -8.8825    6.9995 H       1  UNL1        0.0428
     16 H          13.9663   -8.8230    5.8582 H       1  UNL1        0.0428
     17 H          15.6235  -10.4441    3.8152 H       1  UNL1        0.0428
     18 H          14.0686  -11.2441    4.0647 H       1  UNL1        0.0428
     19 H          15.6137  -12.0897    4.4049 H       1  UNL1        0.0428
     20 H          10.9554   -9.0271    8.8323 H       1  UNL1        0.1027
     21 H          14.2433  -14.4787    7.9332 H       1  UNL1        0.1048
@<TRIPOS>BOND
     1     1     2    1
     2     1    14    1
     3     1    15    1
     4     1    16    1
     5     2     3    1
     6     2     4    1
     7     3    17    1
     8     3    18    1
     9     3    19    1
    10     4     5   ar
    11     4    13   ar
    12     5     6   ar
    13     5    10   ar
    14     6     7   ar
    15     6    11   ar
    16     7     8    1
    17     7     9   ar
    18     9    10   ar
    19     9    20    1
    20    11    12   ar
    21    12    13   ar
    22    12    21    1
@<TRIPOS>SUBSTRUCTURE
     1 UNL1        1 TEMP              0 ****  ****    0 ROOT


##########                                Name:           P12618448
##########                DOCK_Rotatable_Bonds:                   3
##########                    Molecular_Weight:             152.156
##########                       Formal_Charge:        -0.000199974
##########                            HA_RMSDs:          -1000.0000
##########                            HA_RMSDh:          -1000.0000
##########                            HA_RMSDm:              0.0000
##########                          Grid_Score:          -22.572102
##########                     Grid_vdw_energy:          -20.899284
##########                      Grid_es_energy:           -1.672818
##########           Internal_energy_repulsive:            0.856336

@<TRIPOS>MOLECULE
P12618448
 19 19 1 0 0
SMALL
GASTEIGER


@<TRIPOS>ATOM
      1 C          16.1094   -7.9242   -0.2311 C.3     1  UNL1       -0.0569
      2 C          15.8784   -8.2955    1.2238 C.3     1  UNL1        0.0212
      3 C          16.6713   -7.4324    2.1339 C.ar    1  UNL1        0.1989
      4 N          17.2152   -6.2581    1.8891 N.ar    1  UNL1       -0.2007
      5 C          17.8264   -5.9404    3.0838 C.ar    1  UNL1        0.2017
      6 C          17.6292   -6.9400    4.0147 C.ar    1  UNL1        0.2378
      7 O          16.8845   -7.9107    3.3981 O.2     1  UNL1       -0.4238
      8 N          17.9771   -7.2038    5.2997 N.pl3   1  UNL1       -0.2511
      9 N          19.1887   -7.9139    5.4054 N.3     1  UNL1       -0.2542
     10 C          18.5704   -4.7361    3.2468 C.1     1  UNL1        0.1244
     11 N          19.1965   -3.7688    3.4014 N.1     1  UNL1       -0.1891
     12 H          15.5119   -8.5654   -0.8868 H       1  UNL1        0.0234
     13 H          17.1629   -8.0422   -0.5075 H       1  UNL1        0.0234
     14 H          15.8274   -6.8832   -0.4237 H       1  UNL1        0.0234
     15 H          16.1426   -9.3471    1.3828 H       1  UNL1        0.0357
     16 H          14.8140   -8.1921    1.4628 H       1  UNL1        0.0357
     17 H          17.8703   -6.3960    5.9219 H       1  UNL1        0.1690
     18 H          19.8135   -7.6858    4.6228 H       1  UNL1        0.1405
     19 H          19.0240   -8.9200    5.2999 H       1  UNL1        0.1405
@<TRIPOS>BOND
     1     1     2    1
     2     1    12    1
     3     1    13    1
     4     1    14    1
     5     2     3    1
     6     2    15    1
     7     2    16    1
     8     3     4   ar
     9     3     7   ar
    10     4     5   ar
    11     5     6   ar
    12     5    10    1
    13     6     7   ar
    14     6     8    1
    15     8     9    1
    16     8    17    1
    17     9    18    1
    18     9    19    1
    19    10    11    3
@<TRIPOS>SUBSTRUCTURE
     1 UNL1        1 TEMP              0 ****  ****    0 ROOT

